37
CP_grain_mol97 // 0.000256717162 // -897.358652545 // -0.060673133
 H    -0.409622     0.404353    -2.930162
 O    -0.596453     0.293558    -1.961274
 H    -1.583945     0.277562    -1.875865
 H     1.276111     0.574628    -1.568351
 O     2.209321     0.725195    -1.773356
 H     2.719262     0.486927    -0.956418
 H    -0.296762    -2.775009    -1.101480
 O    -0.235702    -1.988267    -0.501977
 H    -0.322470    -1.228721    -1.129085
 H     2.661950    -3.027556    -0.913252
 O     2.477477    -2.199296    -0.423457
 H     1.497526    -2.147710    -0.394388
 H     3.197554     1.440227     0.812509
 O     3.769446     0.724682     0.453587
 H     3.763150    -0.014082     1.095158
 H    -1.997610    -2.210851    -0.131767
 O    -2.982427    -2.199998    -0.092131
 H    -3.245072    -2.951440    -0.657553
 H    -3.243015    -0.743056    -0.932755
 O    -3.236893     0.131154    -1.404865
 H    -3.330834     0.802114    -0.699270
 H     3.262473    -2.000551     2.553521
 O     3.720527    -1.706195     1.761449
 H     3.150936    -2.002457     0.971859
 H    -3.759455     2.448012     1.112019
 O    -3.082261     1.804310     0.878253
 H    -3.180538     1.032516     1.519614
 H     1.221407     2.709977     0.522439
 O     2.166921     2.918233     0.710875
 H     2.526038     3.130656    -0.185485
 H    -1.270298     2.318977     0.381249
 O    -0.408796     2.408034    -0.061789
 H    -0.458294     1.780372    -0.807224
 N    -3.257493    -0.456399     2.414454
 H    -2.423161    -0.624599     2.970277
 H    -3.309361    -1.207884     1.724018
 H    -4.052802    -0.568904     3.036708
