28
CP_grain_mol142 // 0.000330704042 // -668.039085293 // -0.0425448
 H     1.771247     0.189557     2.064076
 O     1.145565     0.390173     1.339200
 H     0.914432    -0.503443     1.005298
 H     0.530472    -2.114186    -0.449750
 O     0.879551    -2.293689     0.476938
 H     0.103634    -2.520091     1.034010
 H    -3.765719    -2.128771     0.396756
 O    -3.954647    -1.276371    -0.053844
 H    -4.197899    -0.678659     0.690260
 H    -1.635083     0.482474     0.426864
 O    -1.760946     0.289251    -0.531508
 H    -2.541037    -0.303218    -0.522155
 H    -0.430976     1.088875     1.903959
 O    -1.376949     0.945855     2.112995
 H    -1.809353     1.827111     2.102038
 H    -1.049143     1.864288    -1.181568
 O    -0.577922     2.706717    -1.330094
 H     0.369566     2.517315    -1.170023
 H     3.847775    -0.609402     0.272124
 O     3.561606    -1.537756     0.118130
 H     2.604406    -1.550272     0.297338
 H     1.705183     1.596152     0.223509
 O     2.080007     2.228991    -0.434114
 H     2.229088     3.046388     0.092198
 N     0.168175    -1.446498    -1.992965
 H    -0.503105    -0.734785    -1.691409
 H    -0.260486    -1.998871    -2.727868
 H     0.969651    -0.970343    -2.396525
