22
CP_grain_mol63 // 0.000187122863 // -515.165320239 // -0.0277035278
 H    -2.464033     1.374810    -0.423875
 O    -1.704348     1.096010     0.136059
 H    -1.214359     0.441986    -0.416000
 H    -0.853914    -1.719247    -1.153509
 O    -0.265276    -0.946257    -1.116374
 H     0.514564    -1.213009    -0.571397
 H    -0.874530     2.565015     0.179393
 O    -0.333715     3.396390     0.063799
 H    -0.373119     3.852086     0.910007
 H     1.692345    -1.334074     1.244171
 O     1.954832    -1.401086     0.294458
 H     2.513179    -2.183638     0.141415
 H     2.293470     0.997351    -1.672631
 O     3.012046     0.336242    -1.658647
 H     2.821224    -0.160877    -0.845549
 H    -2.928716    -1.124065     0.060844
 O    -3.116433    -1.771123    -0.630187
 H    -3.539886    -1.225368    -1.328225
 N     0.673196    -0.648897     2.643508
 H     0.238816    -1.294936     3.295972
 H    -0.080553    -0.160349     2.163708
 H     1.166297     0.045184     3.198249
