40
CP_grain_mol93 // 0.000343207052 // -973.778882528 // -0.0656844977
 H    -2.968496    -1.845313     1.891216
 O    -2.035779    -1.723071     2.194220
 H    -1.769460    -0.852167     1.829557
 H    -1.042755    -2.641985     0.977597
 O    -0.420864    -3.120304     0.385485
 H     0.317790    -3.374879     0.964987
 H    -0.019227     0.114984     1.402369
 O    -0.866262     0.639002     1.331020
 H    -1.059390     0.998362     2.233631
 H     0.982814    -1.685734     2.141826
 O     1.273703    -0.845695     1.730112
 H     1.883222    -1.091733     0.996054
 H     2.951875     3.640053     0.342181
 O     2.636945     2.711805     0.286083
 H     3.383262     2.188019    -0.060406
 H     0.881018     2.823732    -0.107927
 O    -0.071747     2.938230     0.088024
 H    -0.325929     2.087140     0.517484
 H    -2.202807     0.737048     0.147816
 O    -3.054009     0.865255    -0.319308
 H    -3.048690     1.805440    -0.592139
 H    -1.664971     3.490662    -0.545047
 O    -2.645017     3.549186    -0.556511
 H    -2.818705     4.520231    -0.641026
 H     5.448234     0.789056    -0.160102
 O     4.487500     0.715857    -0.160009
 H     4.253894     0.562332     0.803517
 H    -4.117749    -1.812099    -0.251408
 O    -3.834615    -1.706423    -1.191708
 H    -3.476136    -0.799105    -1.165042
 H     3.481150    -0.802489    -0.584836
 O     2.990195    -1.595039    -0.307141
 H     2.351007    -1.875229    -1.016358
 H     1.497693    -3.650431    -1.986649
 O     1.169771    -2.739967    -1.878890
 H     0.501220    -2.798834    -1.162755
 N    -0.035710     0.171462    -1.767628
 H    -0.996977     0.367016    -2.034054
 H     0.285945    -0.596305    -2.350170
 H     0.503578     0.991311    -2.027930
