37
CP_grain_mol106 // 0.000409279687 // -897.331041134 // -0.0571908611
 H    -1.188709     0.809611     2.583151
 O    -1.479830     0.038288     2.030455
 H    -2.175390     0.415453     1.449766
 H    -0.561378    -0.846520     1.009781
 O    -0.111072    -1.535279     0.444880
 H    -0.830703    -2.200168     0.218312
 H     3.068913    -0.622829     1.128651
 O     2.260592    -0.620461     1.682770
 H     1.593053    -1.055198     1.131233
 H     2.102276    -2.820370    -1.593290
 O     1.972881    -1.855373    -1.557964
 H     1.231045    -1.748149    -0.934006
 H     4.223903    -2.113354     0.387093
 O     4.349574    -1.275249    -0.101903
 H     3.639936    -1.343872    -0.771458
 H    -2.153321    -3.639523     0.911049
 O    -1.945282    -3.339236    -0.008374
 H    -2.723053    -2.799534    -0.262838
 H    -3.764200    -0.552595    -0.376454
 O    -3.862362    -1.440827    -0.778315
 H    -4.807518    -1.623309    -0.754867
 H    -2.870207     1.827721    -0.134014
 O    -3.348349     1.096123     0.318333
 H    -3.733814     1.567217     1.088742
 H    -2.766697     4.018051    -0.768654
 O    -2.043908     3.402986    -0.594807
 H    -1.720867     3.685790     0.289552
 H     4.200392     2.211166    -0.732291
 O     3.786024     1.947014     0.093202
 H     2.825401     2.171445     0.003338
 H     0.896764     3.436371     0.001411
 O     1.137316     2.524607     0.192635
 H     0.647549     1.972382    -0.483163
 N    -0.036870     0.845508    -1.646696
 H     0.613462     0.474598    -2.334884
 H    -0.804116     1.275383    -2.152169
 H    -0.409303     0.040950    -1.144419
