25
CP_grain_mol77 // 0.000266638513 // -591.595772233 // -0.0349344135
 H     0.551530    -0.605470    -1.599693
 O     0.722092    -1.471694    -1.154955
 H     0.009174    -1.576598    -0.477510
 H    -3.999739    -1.190106    -0.786169
 O    -3.082235    -1.260443    -1.100921
 H    -2.851756    -0.357613    -1.397918
 H    -1.958230    -1.963265     0.065769
 O    -1.175573    -2.269258     0.577836
 H    -1.062367    -3.211350     0.333551
 H     3.169611    -0.377176     0.096656
 O     3.138253    -1.332722    -0.086512
 H     2.195434    -1.438125    -0.402111
 H     2.743692     2.295270    -0.382095
 O     2.554237     1.342072    -0.481852
 H     2.634602     1.218081    -1.455499
 H    -0.222615     0.873677     0.909047
 O    -0.209389     1.346417     0.034519
 H     0.738054     1.372414    -0.214955
 H    -1.601128     4.256408     0.423326
 O    -1.568605     3.594394    -0.298230
 H    -0.964149     2.863243    -0.022033
 N    -0.236884    -0.100707     2.417039
 H    -0.605538    -0.994006     2.088864
 H    -0.831348     0.225842     3.171894
 H     0.682727    -0.276391     2.810520
