31
CP_grain_mol73 // 0.000316654117 // -744.478266493 // -0.0486781791
 H     1.942447    -1.804112    -2.324323
 O     2.402607    -1.989535    -1.469309
 H     1.821538    -1.698365    -0.719147
 H    -1.515164    -0.987375    -1.141096
 O    -0.650332    -0.885670    -1.588013
 H    -0.416376    -1.806740    -1.829003
 H     3.566174     0.383198     0.081617
 O     3.101573     0.770607     0.863107
 H     2.437227     0.096663     1.093781
 H     2.175970     2.057001     0.190367
 O     1.766151     2.728536    -0.417553
 H     1.997861     3.587652    -0.050508
 H     0.184751     2.195599    -0.879125
 O    -0.589921     1.829020    -1.360700
 H    -0.423378     0.870049    -1.477045
 H    -2.049987     1.976213    -0.516562
 O    -2.934442     1.928605    -0.064566
 H    -3.385386     2.757652    -0.310574
 H     0.399948    -1.914090     0.819087
 O     1.314057    -1.532107     0.895402
 H     1.799309    -2.249122     1.349903
 H    -3.112934    -0.037865     0.337780
 O    -2.906650    -0.968958     0.145795
 H    -3.742639    -1.368432    -0.179895
 H    -0.957661    -3.355354     1.572987
 O    -1.031409    -2.881462     0.715880
 H    -1.790173    -2.269617     0.783541
 N    -0.185199     1.227676     2.107083
 H    -0.027004     0.257408     1.845981
 H    -1.090555     1.492276     1.724379
 H    -0.290648     1.231343     3.117936
