37
CP_grain_mol98 // 0.000368800484 // -897.331891426 // -0.0566098488
 H    -2.161830    -0.148179    -1.038255
 O    -1.749558    -0.985546    -1.385176
 H    -2.056417    -1.701810    -0.796027
 H    -0.125588    -0.364213    -1.806536
 O     0.486625     0.354208    -2.086033
 H     1.141431    -0.042301    -2.698128
 H    -3.338773     1.643460    -0.957359
 O    -2.592704     1.324263    -0.401885
 H    -3.073214     1.116973     0.448491
 H    -1.326970     2.490110    -0.287286
 O    -0.809097     3.316308    -0.407407
 H    -0.021088     3.345160     0.187582
 H    -3.191935    -3.597797    -0.985439
 O    -3.034111    -3.102172    -0.140098
 H    -2.519625    -3.722804     0.390099
 H     1.610923     1.057023    -1.001684
 O     2.403428     1.310792    -0.464063
 H     3.009541     1.674664    -1.147277
 H     1.946887     2.746528     0.387474
 O     1.579912     3.577643     0.779133
 H     1.877632     4.260207     0.132710
 H    -4.723263     1.259469     1.822773
 O    -3.999511     0.613063     1.704131
 H    -4.451074    -0.124590     1.243930
 H     2.282044    -1.929498    -0.522620
 O     3.086405    -1.397766    -0.732384
 H     2.843207    -0.468732    -0.519925
 H     0.280303    -3.446323    -0.328108
 O     0.866386    -2.789462     0.078295
 H     0.284534    -2.175230     0.587455
 H     4.378332    -1.818570     2.177603
 O     4.723290    -1.252361     1.479266
 H     4.167099    -1.456029     0.688802
 N    -0.420524    -0.729843     1.606045
 H    -1.420341    -0.697048     1.782162
 H    -0.191682     0.118250     1.095450
 H     0.035019    -0.661562     2.511567
