34
CP_grain_mol76 // 0.000294646466 // -820.897552 // -0.0562411791
 H    -1.031401     0.917330    -3.102003
 O    -1.228674     0.773284    -2.138053
 H    -2.175695     1.010539    -2.054752
 H     0.700826     0.679461    -1.792916
 O     1.629165     0.692557    -2.053579
 H     2.143763     0.337691    -1.274320
 H    -1.617775    -2.262308    -1.264487
 O    -1.372237    -1.520549    -0.651416
 H    -1.295401    -0.764603    -1.280085
 H     1.229472    -3.073233    -1.393019
 O     1.267914    -2.208524    -0.931944
 H     0.329167    -2.002771    -0.754955
 H     2.929004     1.050338     0.503777
 O     3.266983     0.264912     0.031622
 H     3.094575    -0.532937     0.605923
 H    -3.035255    -1.307466    -0.230185
 O    -3.976164    -1.017230    -0.117847
 H    -4.484883    -1.653672    -0.655203
 H     1.910376    -1.638303     1.917934
 O     2.602255    -1.965762     1.302227
 H     2.056876    -2.176534     0.486149
 H    -3.682795     0.471800     1.138074
 O    -3.339744     1.345440     1.405621
 H    -3.501053     1.406292     2.352970
 H     1.186758     2.599653     0.448570
 O     2.144249     2.781227     0.490983
 H     2.424447     2.900253    -0.448753
 H    -1.440734     1.761263     0.840875
 O    -0.569167     1.809978     0.409944
 H    -0.760478     1.604507    -0.523801
 N     0.267429    -0.742150     2.438386
 H     0.109935    -0.408378     3.384922
 H    -0.469851    -1.411942     2.236629
 H     0.111482     0.045411     1.809487
