40
CP_grain_mol17 // 0.000400977931 // -973.774330447 // -0.0662019072
 H     0.434496    -0.717593     2.551778
 O     0.374988    -1.636517     2.927005
 H     0.489533    -2.186625     2.137438
 H    -2.571271     1.403758     1.045467
 O    -2.246316     1.591193     1.975007
 H    -2.884444     1.090771     2.545049
 H     0.887509    -2.943587    -0.121217
 O     0.567727    -2.030065     0.001122
 H     1.364807    -1.458190     0.033366
 H     3.048359    -0.414644     1.109067
 O     2.804325    -0.570452     0.166379
 H     3.115709     0.215749    -0.321666
 H     0.587395     2.931666    -0.424613
 O     1.365071     2.496588     0.018997
 H     2.119953     2.509197    -0.585470
 H    -2.377695    -1.889353     0.896973
 O    -2.092843    -1.977131    -0.040581
 H    -1.136981    -1.757763    -0.022951
 H    -3.765484     0.567746    -0.379985
 O    -2.984323     1.143015    -0.503871
 H    -2.295291     0.593361    -0.948557
 H    -4.934473    -1.821269    -1.346564
 O    -4.242706    -2.432588    -1.636406
 H    -3.457626    -2.137120    -1.118188
 H    -0.697325     1.007537     1.896573
 O     0.273092     0.799347     1.951424
 H     0.665103     1.102175     1.115732
 H     4.656422     1.560941    -0.378215
 O     3.933652     1.683507    -1.053192
 H     4.377181     1.508882    -1.890503
 H    -1.228751     3.976983    -0.085117
 O    -0.907449     3.547048    -0.912125
 H    -1.611250     2.907448    -1.098946
 H     3.381736    -2.094421    -0.586763
 O     3.473530    -3.032654    -0.855490
 H     4.431962    -3.150025    -0.931905
 N    -0.612056     0.270151    -1.884843
 H     0.103973     0.929522    -1.590914
 H    -0.736485     0.383630    -2.885754
 H    -0.232656    -0.660174    -1.726352
