31
CP_grain_mol23 // 0.00033215107 // -744.487688818 // -0.0489331377
 H     0.681337    -0.478642     2.393454
 O     1.592462    -0.848916     2.373380
 H     2.148932    -0.060159     2.556242
 H    -3.165382     1.834806    -0.037189
 O    -2.341898     2.221440     0.285915
 H    -1.735596     1.434950     0.427203
 H     2.208610    -1.095079     0.874095
 O     2.644218    -1.314910    -0.001462
 H     2.816549    -0.452963    -0.399756
 H     1.777735     2.380341    -0.303806
 O     2.617655     1.859451    -0.452471
 H     3.281975     2.514422    -0.692296
 H    -0.472885     3.117350    -0.142925
 O     0.428367     3.298655     0.174413
 H     0.348632     3.131121     1.132894
 H     1.235845    -4.103137    -0.568581
 O     0.794758    -3.229698    -0.535692
 H     1.508978    -2.549419    -0.547733
 H    -0.943988    -2.598838    -0.540033
 O    -1.726748    -2.078078    -0.270508
 H    -1.877630    -2.359122     0.654240
 H    -0.096873     0.391937    -0.387401
 O    -0.556821     0.286017     0.483474
 H    -1.013205    -0.572741     0.343011
 H    -4.646262    -1.157171     0.318975
 O    -3.990052    -0.452096     0.131206
 H    -3.284301    -0.949455    -0.317763
 N     0.508892     0.364784    -2.126697
 H     1.395202     0.863888    -2.134015
 H    -0.106056     0.804167    -2.804255
 H     0.680606    -0.584662    -2.443525
