22
CP_grain_mol37 // 0.000213314973 // -515.154887185 // -0.0312565954
 H     2.226936    -1.354974    -0.261811
 O     3.189139    -1.304455    -0.382349
 H     3.335792    -0.327272    -0.479133
 H    -0.555071    -0.883033    -0.937395
 O     0.416140    -0.987406    -0.977725
 H     0.571016    -1.095756    -1.938960
 H     0.635003     1.839029    -1.988510
 O     0.614041     1.744697    -1.006546
 H     0.720814     0.773142    -0.902960
 H    -0.859110     1.800942    -0.197431
 O    -1.675164     1.857668     0.373164
 H    -2.227257     1.140361     0.032953
 H    -2.483157    -1.060961    -1.868120
 O    -2.440614    -0.530991    -1.042952
 H    -2.418147    -1.152065    -0.276816
 H     2.386396     0.541959     2.251904
 O     1.734157     0.876890     1.613634
 H     1.684096     1.834674     1.817391
 N    -1.815673    -1.520793     1.509972
 H    -1.259295    -2.364822     1.601152
 H    -2.540505    -1.561242     2.219901
 H    -1.209392    -0.735651     1.740225
