16
CP_grain_mol94 // 0.000158785974 // -362.298181374 // -0.0174527199
 H     1.252332    -0.747787    -1.155800
 O     1.946553    -1.158033    -1.719806
 H     2.653206    -1.378468    -1.091739
 H    -0.873379    -0.588813    -0.050541
 O    -0.029519    -0.088014    -0.110523
 H    -0.274070     0.848814    -0.310113
 H     0.778501    -0.030559     1.474900
 O     1.187686    -0.152557     2.362745
 H     2.105586     0.149795     2.266967
 H    -2.747232    -1.794567    -0.795725
 O    -2.504490    -1.358467     0.029517
 H    -2.595984    -2.067495     0.696670
 N    -0.501375     2.654088    -0.545041
 H    -1.466634     2.950326    -0.659214
 H     0.019174     3.015474    -1.339706
 H    -0.143728     3.121230     0.284125
