34
CP_grain_mol78 // 0.000294619092 // -820.897553953 // -0.0562399045
 H    -1.031352     0.917251    -3.101982
 O    -1.228657     0.773237    -2.138035
 H    -2.175648     1.010611    -2.054746
 H     0.700941     0.679810    -1.793008
 O     1.629302     0.692729    -2.053612
 H     2.143800     0.337891    -1.274248
 H    -1.617862    -2.262421    -1.264266
 O    -1.372176    -1.520586    -0.651347
 H    -1.295412    -0.764702    -1.280099
 H     1.229488    -3.073195    -1.393229
 O     1.267952    -2.208534    -0.932031
 H     0.329202    -2.002756    -0.755088
 H     2.928740     1.050420     0.503980
 O     3.266829     0.265047     0.031791
 H     3.094478    -0.532845     0.605998
 H    -3.035350    -1.307420    -0.230135
 O    -3.976260    -1.017219    -0.117854
 H    -4.484909    -1.653770    -0.655157
 H     1.910542    -1.638745     1.918075
 O     2.602320    -1.965983     1.302186
 H     2.056899    -2.176683     0.486125
 H    -3.682841     0.471841     1.138224
 O    -3.339675     1.345510     1.405520
 H    -3.501406     1.406855     2.352766
 H     1.186841     2.599641     0.448700
 O     2.144342     2.781162     0.491141
 H     2.424555     2.900250    -0.448588
 H    -1.440696     1.761263     0.840887
 O    -0.569127     1.810077     0.409963
 H    -0.760419     1.604585    -0.523776
 N     0.267259    -0.742316     2.438205
 H     0.111405     0.045304     1.809342
 H     0.109501    -0.408522     3.384703
 H    -0.470115    -1.411977     2.236302
