34
CP_grain_mol54 // 0.000410757471 // -820.898832138 // -0.0540254853
 H     0.924210     2.042666     1.467870
 O     0.129853     1.486733     1.577282
 H     0.336640     0.691154     1.060098
 H    -2.655724    -1.213809     1.813610
 O    -1.907070    -0.693275     2.166722
 H    -1.109819    -0.997697     1.666987
 H     2.530585     0.426874     1.137124
 O     2.517093     0.306783     0.163076
 H     2.519462    -0.668910     0.066514
 H     3.335057    -2.589242     0.872001
 O     3.108183    -2.475407    -0.082898
 H     3.921619    -2.063399    -0.433447
 H     3.737852     1.216174    -0.426022
 O     4.598312     1.658063    -0.674364
 H     4.385295     2.578983    -0.880198
 H     0.696076    -1.824538     1.863759
 O     0.309160    -1.439400     1.052984
 H    -0.044761    -2.174597     0.515337
 H    -1.103787     2.539336     0.955528
 O    -1.641394     3.256614     0.542010
 H    -1.075747     4.038317     0.680315
 H    -1.573646     1.085479    -1.757523
 O    -2.429005     1.508751    -1.486924
 H    -2.159895     2.238155    -0.892526
 H    -1.869838    -3.519296    -0.756108
 O    -1.441849    -2.658691    -0.684643
 H    -2.188100    -2.007262    -0.635139
 H    -3.115956     0.101479    -0.850891
 O    -3.436674    -0.789057    -0.540741
 H    -4.160283    -1.030500    -1.128530
 N    -0.066749     0.055106    -2.041934
 H     0.711270     0.242004    -1.413392
 H     0.295400     0.135367    -2.987173
 H    -0.321540    -0.921391    -1.904680
