43
CP_grain_mol47 // 0.000388652652 // -1050.20243949 // -0.0693578011
 H     1.941894     0.849569     2.243726
 O     2.027063     0.535440     1.310798
 H     2.981661     0.346521     1.137600
 H     1.698181     1.863663     0.487792
 O     1.585133     2.694235    -0.063191
 H     1.946688     3.384444     0.536365
 H    -1.284263     2.214175     1.090686
 O    -1.023646     3.017844     0.582451
 H    -0.080720     2.889951     0.337046
 H    -1.249940     0.414991     2.633096
 O    -1.697370     0.674114     1.799640
 H    -2.635331     0.576303     2.020549
 H     3.055938     2.274444    -0.871209
 O     3.984580     2.164294    -1.195829
 H     4.266189     1.306484    -0.823100
 H     1.573550    -1.084171     1.478315
 O     1.427356    -2.057532     1.557736
 H     0.453297    -2.148676     1.384736
 H    -1.774268    -2.057464     1.275681
 O    -1.026403    -2.147893     0.643986
 H    -1.036171    -1.321441     0.086105
 H    -2.355697     3.781176    -2.089381
 O    -2.562076     4.065165    -1.194285
 H    -1.924633     3.574894    -0.574369
 H    -4.568995     1.033855    -0.275912
 O    -4.870849     0.100032    -0.287831
 H    -5.834687     0.148886    -0.118788
 H     4.737837    -0.779047     0.901100
 O     4.313879    -0.315669     0.143539
 H     3.836259    -1.040611    -0.318854
 H    -4.377167    -1.677337    -0.341684
 O    -4.365557    -2.621596    -0.097360
 H    -3.884966    -2.600295     0.763655
 H     2.269997    -2.446996     0.143184
 O     2.808410    -2.535084    -0.689305
 H     2.142654    -2.814946    -1.342552
 H    -0.293742    -3.087609    -1.097269
 O     0.278219    -3.441045    -1.798614
 H     0.194812    -4.395420    -1.675548
 N    -0.706176    -0.104423    -1.196151
 H    -1.183320    -0.275975    -2.074905
 H     0.289626    -0.062292    -1.388272
 H    -0.991367     0.805454    -0.848632
