31
CP_grain_mol27 // 0.000385253373 // -744.464385574 // -0.048674067
 H    -2.770407    -1.744143    -0.304474
 O    -3.658251    -1.359139    -0.246993
 H    -3.507009    -0.383488    -0.347067
 H     1.643701     1.892770     0.578474
 O     2.510604     1.949601     0.118151
 H     2.620988     2.917047     0.038402
 H    -0.171499     3.068342     1.238203
 O     0.052154     2.117665     1.209057
 H    -0.118295     1.770932     2.108966
 H    -0.598574     2.166155    -1.692412
 O    -0.790699     1.343276    -1.209468
 H    -0.470369     1.547247    -0.295790
 H    -3.884757     1.793237    -1.168185
 O    -3.357515     1.308623    -0.521883
 H    -2.422483     1.397782    -0.836602
 H    -1.005503    -0.979863     1.373261
 O    -1.191178    -0.450550     2.181093
 H    -0.368711    -0.583393     2.709484
 H     3.412249     0.534111    -0.683513
 O     3.825185    -0.331651    -0.871706
 H     3.538589    -0.860017    -0.102269
 H    -0.526755    -3.015955     0.213261
 O    -0.764527    -2.106471     0.002043
 H    -0.120609    -1.799860    -0.733602
 H     1.516000    -1.733064     0.728370
 O     2.379755    -1.757151     1.160960
 H     2.162955    -1.514351     2.079196
 N     0.855708    -1.085365    -1.870430
 H     0.753888    -1.481430    -2.799728
 H     1.855510    -0.951001    -1.702257
 H     0.426914    -0.157118    -1.878743
