25
CP_grain_mol80 // 0.00031664318 // -591.585494636 // -0.036723813
 H    -2.757466    -1.052705     0.571134
 O    -3.274637    -1.833805     0.313954
 H    -2.767391    -2.171432    -0.469772
 H    -1.440751     1.512306     0.286480
 O    -1.998515     0.723508     0.118207
 H    -2.686289     1.063772    -0.487711
 H    -0.901280     0.213633    -2.680055
 O    -0.384266    -0.173494    -1.935574
 H    -0.978179    -0.002730    -1.172431
 H     0.963713     0.646729    -1.172727
 O     1.775760     0.942343    -0.695981
 H     1.485353     1.019031     0.242653
 H    -1.309164     3.561321    -0.241922
 O    -0.500554     3.109190     0.115750
 H    -0.357853     3.542929     0.964700
 H     2.861471    -0.437130    -0.392799
 O     3.562070    -1.123795    -0.271446
 H     3.108353    -1.955272    -0.498291
 H    -0.165788    -2.874154     0.906441
 O     0.006368    -2.088427     0.356838
 H     0.767430    -2.356755    -0.200855
 N     1.082054     0.361269     1.950885
 H     0.469284     0.709790     2.680772
 H     1.965533     0.119072     2.391095
 H     0.678841    -0.511442     1.603113
