28
CP_grain_mol103 // 0.000294309703 // -668.016674468 // -0.0379826797
 H    -0.200503    -2.722594    -0.296121
 O    -1.168802    -2.683986    -0.505442
 H    -1.432120    -3.602721    -0.645792
 H     0.318360    -0.092622    -1.561334
 O    -0.480528     0.114759    -1.017789
 H    -0.826351    -0.762535    -0.802402
 H    -0.557798     2.016794    -0.609226
 O    -0.158612     2.868188    -0.859062
 H     0.613650     2.973403    -0.275759
 H     1.257430    -2.032771     0.931003
 O     1.475536    -2.405080     0.041415
 H     1.604287    -3.385179     0.150362
 H    -2.794671    -1.502700     0.297579
 O    -3.547813    -0.916732     0.130338
 H    -3.246424    -0.015143     0.358524
 H     2.942802    -1.578441    -0.368663
 O     3.649502    -1.058815    -0.827067
 H     3.899628    -0.321087    -0.255046
 H     2.631758     3.336970     1.309173
 O     2.311768     3.098440     0.433784
 H     2.989754     2.470061     0.080403
 H    -2.801466     2.647342     0.667708
 O    -2.839161     1.823159     0.168605
 H    -3.410483     2.041431    -0.598977
 N     0.555632    -0.704463     2.061434
 H    -0.257945    -0.992022     2.595657
 H     0.251894    -0.019995     1.371692
 H     1.193650    -0.246408     2.702925
