28
CP_grain_mol26 // 0.000337642064 // -668.032843457 // -0.0451920578
 H    -0.488782     1.550083    -1.408688
 O    -0.454338     2.534499    -1.399421
 H    -1.397773     2.778116    -1.423098
 H    -1.077720    -0.382467    -2.060035
 O    -0.340930    -0.206775    -1.434735
 H     0.480879    -0.265418    -1.997804
 H     1.186882     2.296038    -0.373096
 O     1.959106     1.845318     0.014155
 H     1.639959     0.960230     0.234634
 H     0.932781    -1.743213     0.871690
 O     1.707840    -1.239962     1.208344
 H     2.321096    -1.964807     1.469012
 H    -1.276693    -2.594497     0.046301
 O    -0.337107    -2.485786    -0.161285
 H    -0.351570    -1.618894    -0.664817
 H    -2.809038    -0.734314     0.006919
 O    -3.067529    -1.579885    -0.429278
 H    -3.484043    -1.253627    -1.248967
 H     2.909542    -1.001509    -0.113422
 O     3.581553    -0.837316    -0.810952
 H     3.999929    -0.000687    -0.560346
 H    -1.722914     0.977446     1.243177
 O    -2.608988     0.883376     0.789205
 H    -2.612750     1.532750     0.072168
 N    -0.264945     1.009739     2.298036
 H     0.342419     0.192751     2.235725
 H    -0.579794     1.079086     3.261114
 H     0.325338     1.817004     2.115008
