34
CP_grain_mol83 // 0.00041063508 // -820.898811353 // -0.0540104135
 H     0.924719     2.044345     1.464496
 O     0.130288     1.488360     1.572894
 H     0.337897     0.692480     1.056554
 H    -2.655894    -1.212070     1.815486
 O    -1.906882    -0.691306     2.167445
 H    -1.110200    -0.995997     1.667100
 H     2.531880     0.426315     1.139393
 O     2.518590     0.305964     0.165335
 H     2.519027    -0.669562     0.068654
 H     3.334560    -2.590921     0.872348
 O     3.109163    -2.479247    -0.083114
 H     3.921347    -2.063932    -0.432554
 H     3.738177     1.217467    -0.425203
 O     4.597680     1.660532    -0.674295
 H     4.383340     2.581128    -0.880167
 H     0.696168    -1.822872     1.863325
 O     0.308739    -1.438572     1.052408
 H    -0.044616    -2.174700     0.515777
 H    -1.103802     2.540974     0.953167
 O    -1.642273     3.258544     0.541255
 H    -1.076767     4.040314     0.679769
 H    -1.573028     1.084799    -1.756633
 O    -2.428585     1.508004    -1.486695
 H    -2.160211     2.238398    -0.893235
 H    -1.872446    -3.520807    -0.754809
 O    -1.443263    -2.660788    -0.683262
 H    -2.188724    -2.008360    -0.634383
 H    -3.116404     0.100683    -0.850231
 O    -3.436782    -0.789855    -0.539923
 H    -4.160785    -1.031343    -1.127229
 N    -0.066276     0.054001    -2.041807
 H     0.712396     0.241359    -1.414224
 H     0.294794     0.133611    -2.987522
 H    -0.320891    -0.922407    -1.903612
