34
CP_grain_mol107 // 0.000293641887 // -820.897510242 // -0.056241086
 H    -1.040114     0.947060    -3.096735
 O    -1.235201     0.794093    -2.133721
 H    -2.182283     1.029393    -2.046149
 H     0.694678     0.697961    -1.789878
 O     1.622924     0.713687    -2.050735
 H     2.137615     0.351149    -1.275247
 H    -1.617437    -2.251155    -1.289060
 O    -1.372071    -1.514319    -0.669993
 H    -1.297541    -0.752619    -1.292012
 H     1.231648    -3.052611    -1.418657
 O     1.269166    -2.193732    -0.946837
 H     0.329835    -1.990164    -0.770121
 H     2.924433     1.048434     0.510140
 O     3.262381     0.267382     0.030811
 H     3.095042    -0.535511     0.599124
 H    -3.031895    -1.307629    -0.240374
 O    -3.972716    -1.019544    -0.120690
 H    -4.483512    -1.650679    -0.662188
 H     1.922556    -1.659343     1.906307
 O     2.611356    -1.978906     1.283507
 H     2.061565    -2.179227     0.467510
 H    -3.679326     0.455859     1.148435
 O    -3.336685     1.327115     1.424314
 H    -3.495088     1.377619     2.372755
 H     1.182351     2.595989     0.468113
 O     2.139565     2.779050     0.510920
 H     2.418391     2.906724    -0.428065
 H    -1.441699     1.748716     0.858006
 O    -0.571321     1.803367     0.425259
 H    -0.764848     1.608645    -0.510253
 N     0.274836    -0.766370     2.434680
 H     0.117217     0.024257     1.810075
 H     0.116981    -0.437635     3.382942
 H    -0.461614    -1.436185     2.229891
