25
CP_grain_mol126 // 0.000270405583 // -591.601424647 // -0.0395557373
 H     0.693791     1.005218    -2.557064
 O    -0.001756     0.751161    -1.917767
 H     0.235405     1.288161    -1.134039
 H    -0.406203     2.090796     0.584572
 O     0.528349     2.330016     0.374503
 H     0.435616     3.250938     0.051167
 H    -2.221139     1.815906    -0.437415
 O    -2.082356     1.593305     0.516598
 H    -2.601299     2.291166     0.968792
 H    -2.502299    -0.282947     0.149318
 O    -2.635370    -1.193871    -0.163660
 H    -1.769270    -1.469582    -0.555804
 H     2.602163    -0.143402     0.074291
 O     2.883798     0.809822    -0.003756
 H     2.063868     1.302948     0.168542
 H    -0.067048    -0.935806    -1.606804
 O    -0.246692    -1.870122    -1.337739
 H    -0.445862    -2.315446    -2.189308
 H     1.333883    -1.513931     1.112006
 O     1.992541    -1.684230     0.395076
 H     1.415419    -1.984096    -0.331717
 N    -0.132941    -1.056962     2.222021
 H    -0.236371    -0.051320     2.323972
 H    -0.129491    -1.450127     3.158696
 H    -0.978693    -1.388400     1.760609
