22
CP_grain_mol59 // 0.000187353109 // -515.165328442 // -0.0277113174
 H    -2.462017     1.375660    -0.427275
 O    -1.702782     1.096981     0.133341
 H    -1.213373     0.441422    -0.417485
 H    -0.854490    -1.721640    -1.150965
 O    -0.265570    -0.948811    -1.114782
 H     0.513825    -1.214915    -0.568840
 H    -0.871634     2.565281     0.174660
 O    -0.329882     3.395894     0.057978
 H    -0.369955     3.853541     0.903102
 H     1.689878    -1.331680     1.247963
 O     1.953271    -1.401943     0.298701
 H     2.510330    -2.185883     0.148480
 H     2.295635     0.990886    -1.673605
 O     3.013585     0.329116    -1.658375
 H     2.822318    -0.166175    -0.844270
 H    -2.929389    -1.121562     0.061720
 O    -3.117939    -1.769684    -0.628088
 H    -3.540358    -1.224641    -1.327282
 N     0.669885    -0.641249     2.643859
 H    -0.083196    -0.153874     2.161816
 H     1.163155     0.054482     3.196384
 H     0.234611    -1.284579     3.298396
