28
CP_grain_mol158 // 0.000306199546 // -668.018405702 // -0.0410924161
 H     0.654499    -1.786575    -1.055635
 O     1.089840    -2.662125    -0.978693
 H     1.794658    -2.506545    -0.302231
 H     3.608349    -2.306066     1.224030
 O     2.712502    -1.972828     1.001934
 H     2.759687    -0.997527     0.888538
 H     3.177208     0.573418    -0.436107
 O     2.410432     0.594852     0.178044
 H     1.646867     0.396553    -0.419376
 H    -0.957924    -1.932939     1.595726
 O    -0.991034    -1.295920     0.860987
 H    -1.034660    -0.408462     1.286383
 H    -2.475300     1.131875    -1.760820
 O    -2.257918     0.474426    -1.068669
 H    -3.091768     0.300725    -0.547771
 H    -4.600546    -0.893588     0.719558
 O    -4.528213    -0.062624     0.213200
 H    -5.156194    -0.181186    -0.527206
 H    -0.536958     0.206063    -1.232267
 O     0.354561    -0.095219    -1.512263
 H     0.507446     0.311504    -2.391354
 H     3.054064     3.574420    -0.701499
 O     2.199954     3.378287    -0.280310
 H     2.301053     2.446315     0.002001
 N    -0.954319     1.407050     1.644647
 H    -1.415990     1.700775     0.786013
 H    -0.020776     1.809265     1.632105
 H    -1.454472     1.841834     2.413549
