25
CP_grain_mol13 // 0.000268104968 // -591.615213943 // -0.0348334555
 H     1.223907     2.152286    -0.087021
 O     0.610223     1.471745    -0.458979
 H    -0.298690     1.847281    -0.266820
 H    -1.210812    -1.486415     0.834494
 O    -1.634674    -1.554283    -0.061688
 H    -0.909714    -1.656169    -0.699311
 H     1.287730    -1.666485    -2.480201
 O     0.724419    -2.096716    -1.801299
 H     0.530471    -2.950851    -2.217671
 H    -3.968502     0.177545    -1.089757
 O    -3.463907     0.361993    -0.285095
 H    -2.810103    -0.392253    -0.225944
 H    -2.043669     2.952580     0.567295
 O    -1.802669     2.482923    -0.262869
 H    -2.455498     1.737349    -0.329395
 H     1.793915    -1.411817    -0.166198
 O     1.976460    -0.698893     0.467732
 H     1.359646     0.019987     0.192466
 H     3.430126     0.513397     0.260150
 O     4.040754     1.227747    -0.018269
 H     3.601292     2.045023     0.264861
 N    -0.379378    -1.170233     2.395767
 H    -0.647937    -0.285962     2.817441
 H     0.592802    -1.084042     2.095236
 H    -0.424172    -1.875953     3.123739
