22
CP_grain_mol84 // 0.000225945373 // -515.166841111 // -0.0318689965
 H     1.006112     1.368595     0.220075
 O     1.376259     1.969420    -0.455435
 H     0.783021     2.746500    -0.346432
 H     3.255192    -1.141845     1.183738
 O     2.703970    -0.479520     0.735284
 H     3.379174     0.054867     0.239377
 H     1.735100    -1.671906    -1.996002
 O     1.238320    -1.016508    -1.488295
 H     1.748819    -0.934137    -0.650692
 H    -0.452382    -0.852405    -1.446606
 O    -1.439430    -0.757282    -1.385906
 H    -1.632893    -1.309132    -0.588047
 H    -3.198949     1.415284    -0.144202
 O    -2.271972     1.535328    -0.370158
 H    -1.971808     0.680706    -0.810885
 H     0.027729     1.659373     2.066403
 O    -0.274712     0.876995     1.563825
 H    -1.063253     1.194060     1.081792
 N    -1.464173    -1.994816     1.135644
 H    -0.998644    -1.216880     1.605265
 H    -0.798234    -2.762221     1.109567
 H    -2.229262    -2.294615     1.732624
