25
CP_grain_mol2 // 0.000285343686 // -591.605270035 // -0.0350707013
 H     0.808574     2.915899    -0.482509
 O     0.291841     2.238508    -0.961264
 H     0.701171     2.288982    -1.853027
 H    -1.826092    -0.443265     2.160410
 O    -1.105185     0.072884     1.758434
 H    -1.602223     0.706585     1.195952
 H    -2.787842     2.034511    -0.517694
 O    -2.968307     1.456389     0.251341
 H    -3.259481     0.575888    -0.101094
 H     4.119859    -0.968348     0.883452
 O     3.709714    -0.544706     1.646048
 H     2.826274    -0.288940     1.312651
 H     0.953905     0.804046    -0.148279
 O     1.191963    -0.012739     0.347644
 H     0.404227    -0.132722     0.928084
 H    -2.711619    -1.472697    -0.503347
 O    -3.599665    -1.100637    -0.254331
 H    -3.740922    -1.364840     0.665856
 H     2.725206    -0.324200    -1.045060
 O     3.599769    -0.236541    -1.453332
 H     4.010435     0.498255    -0.948638
 N    -1.058189    -1.955944    -1.174772
 H    -0.790396    -2.920522    -1.002125
 H    -0.307599    -1.367604    -0.814317
 H    -1.077195    -1.834691    -2.183247
