40
CP_grain_mol115 // 0.000343165169 // -973.778879923 // -0.0656843287
 H    -2.968584    -1.845309     1.891155
 O    -2.035868    -1.723081     2.194186
 H    -1.769556    -0.852161     1.829559
 H    -1.042783    -2.642046     0.977540
 O    -0.420922    -3.120421     0.385456
 H     0.317765    -3.374948     0.964938
 H    -0.019256     0.114882     1.402403
 O    -0.866243     0.639000     1.331078
 H    -1.059372     0.998289     2.233717
 H     0.982714    -1.685791     2.141840
 O     1.273595    -0.845751     1.730111
 H     1.883132    -1.091781     0.996066
 H     2.951786     3.639978     0.342237
 O     2.636832     2.711734     0.286144
 H     3.383149     2.188009    -0.060430
 H     0.880929     2.823747    -0.107771
 O    -0.071837     2.938193     0.088203
 H    -0.325970     2.087092     0.517691
 H    -2.202750     0.737014     0.147885
 O    -3.053915     0.865216    -0.319313
 H    -3.048573     1.805396    -0.592128
 H    -1.664929     3.490718    -0.545142
 O    -2.644977     3.549215    -0.556582
 H    -2.818688     4.520260    -0.641034
 H     5.448208     0.789027    -0.160214
 O     4.487478     0.715816    -0.160051
 H     4.253937     0.562244     0.803473
 H    -4.117761    -1.812056    -0.251616
 O    -3.834579    -1.706417    -1.191908
 H    -3.475933    -0.799167    -1.165225
 H     3.481132    -0.802493    -0.584786
 O     2.990158    -1.595033    -0.307088
 H     2.350953    -1.875170    -1.016301
 H     1.497630    -3.650436    -1.986630
 O     1.169703    -2.739973    -1.878882
 H     0.501126    -2.798841    -1.162777
 N    -0.035383     0.171765    -1.767599
 H    -0.996432     0.368143    -2.034206
 H     0.285780    -0.596165    -2.350201
 H     0.504628     0.991206    -2.027695
