31
CP_grain_mol32 // 0.000368292545 // -744.487255333 // -0.0508582144
 H    -1.713278     1.914434    -0.245430
 O    -1.128637     2.515714    -0.750575
 H    -1.554916     3.396543    -0.643777
 H    -4.293196    -2.134182    -0.653270
 O    -3.550428    -1.656785    -0.252244
 H    -2.775304    -1.833859    -0.807654
 H     0.414150    -3.669183    -0.574165
 O     0.584311    -2.839797    -0.099224
 H     1.555674    -2.658548    -0.150844
 H    -3.391084     1.447688     0.939175
 O    -2.731396     0.767765     0.738690
 H    -3.241924     0.018736     0.356289
 H    -0.220403    -1.610644    -0.799678
 O    -0.774310    -0.862202    -1.168714
 H    -0.945805    -0.269916    -0.428897
 H     1.349566     0.224086     1.170640
 O     2.155617     0.609310     0.741279
 H     1.928459     0.678536    -0.221714
 H     0.727345     0.261422    -1.949707
 O     1.372279     0.979584    -1.805810
 H     1.987240     0.906824    -2.569598
 H     3.692573    -1.783564    -0.703644
 O     3.184404    -1.957837     0.101748
 H     2.940498    -1.055835     0.413881
 H     1.685510     2.445565     0.855345
 O     1.263568     3.288806     0.590602
 H     0.474939     2.982952     0.089997
 N    -0.087398    -0.543311     2.055144
 H    -1.024902    -0.154154     1.966353
 H     0.143244    -0.543791     3.044200
 H    -0.129861    -1.516402     1.760482
