43
CP_grain_mol57 // 0.000393841247 // -1050.20251026 // -0.0696158307
 H     1.926613     0.850056     2.241454
 O     2.012943     0.536135     1.308545
 H     2.968081     0.348009     1.136773
 H     1.691035     1.874576     0.495927
 O     1.578446     2.706756    -0.052074
 H     1.939510     3.396254     0.548918
 H    -1.295936     2.209296     1.081473
 O    -1.036544     3.014909     0.576207
 H    -0.090707     2.894609     0.338774
 H    -1.263949     0.413239     2.629930
 O    -1.708839     0.667833     1.793856
 H    -2.647679     0.575572     2.013521
 H     3.046766     2.286473    -0.862785
 O     3.974112     2.172853    -1.190104
 H     4.254372     1.314707    -0.817187
 H     1.558534    -1.084006     1.480293
 O     1.416730    -2.057918     1.560111
 H     0.443944    -2.155255     1.383393
 H    -1.780070    -2.052906     1.261628
 O    -1.032270    -2.157772     0.632406
 H    -1.017270    -1.326982     0.080885
 H    -2.362044     3.784822    -2.098685
 O    -2.567932     4.069467    -1.203692
 H    -1.934634     3.574916    -0.583491
 H    -4.576074     1.035741    -0.286563
 O    -4.877801     0.101911    -0.295684
 H    -5.842209     0.151078    -0.130316
 H     4.727628    -0.769576     0.905694
 O     4.304084    -0.308297     0.146444
 H     3.830260    -1.034981    -0.316822
 H    -4.381264    -1.675826    -0.351747
 O    -4.368738    -2.619179    -0.103950
 H    -3.889573    -2.593240     0.757777
 H     2.262023    -2.443837     0.146762
 O     2.801550    -2.530057    -0.685267
 H     2.139750    -2.821049    -1.337854
 H    -0.293449    -3.096997    -1.104986
 O     0.284602    -3.461962    -1.795195
 H     0.199203    -4.414258    -1.657784
 N    -0.614485    -0.109979    -1.178481
 H    -1.013992    -0.286561    -2.094205
 H     0.393617    -0.060016    -1.285867
 H    -0.933844     0.798579    -0.858371
