25
CP_grain_mol141 // 0.000270646953 // -591.601403231 // -0.0395555342
 H     0.691638     1.004737    -2.558205
 O    -0.003686     0.749489    -1.919162
 H     0.232409     1.287172    -1.135374
 H    -0.411304     2.089938     0.583321
 O     0.523073     2.328992     0.371793
 H     0.430895     3.250222     0.049408
 H    -2.224534     1.813322    -0.435910
 O    -2.085770     1.590905     0.518116
 H    -2.603945     2.289511     0.970083
 H    -2.502407    -0.286281     0.151891
 O    -2.633959    -1.197458    -0.160948
 H    -1.767363    -1.471802    -0.553167
 H     2.603749    -0.138495     0.073898
 O     2.883223     0.815657    -0.002131
 H     2.061659     1.306366     0.169141
 H    -0.066367    -0.936906    -1.607106
 O    -0.245709    -1.870876    -1.336295
 H    -0.446925    -2.317321    -2.186767
 H     1.338115    -1.509322     1.109753
 O     1.997319    -1.680183     0.393333
 H     1.421186    -1.982885    -0.332946
 N    -0.128836    -1.056660     2.220406
 H    -0.974620    -1.390096     1.760547
 H    -0.235251    -0.051613     2.324860
 H    -0.121010    -1.452136     3.156063
