22
CP_grain_mol71 // 0.000225934256 // -515.166841665 // -0.0318687355
 H     1.006090     1.368558     0.220092
 O     1.376254     1.969427    -0.455368
 H     0.783029     2.746509    -0.346341
 H     3.255239    -1.141833     1.183601
 O     2.703996    -0.479495     0.735200
 H     3.379159     0.054949     0.239298
 H     1.735054    -1.671825    -1.996089
 O     1.238274    -1.016461    -1.488338
 H     1.748825    -0.934077    -0.650769
 H    -0.452443    -0.852384    -1.446597
 O    -1.439490    -0.757270    -1.385879
 H    -1.632933    -1.309135    -0.588028
 H    -3.198993     1.415327    -0.144202
 O    -2.272012     1.535357    -0.370149
 H    -1.971854     0.680724    -0.810859
 H     0.027768     1.659333     2.066430
 O    -0.274714     0.876971     1.563856
 H    -1.063263     1.194065     1.081860
 N    -1.464066    -1.994914     1.135657
 H    -2.229067    -2.294796     1.732709
 H    -0.998534    -1.216974     1.605265
 H    -0.798079    -2.762273     1.109456
