34
CP_grain_mol114 // 0.000332930623 // -820.916031759 // -0.0517820158
 H    -0.930609    -2.397093    -1.367799
 O    -0.023956    -2.666274    -1.614494
 H    -0.039155    -3.636647    -1.527824
 H    -0.093505     0.434607    -1.822282
 O    -0.614420     0.574269    -1.008335
 H    -1.320659    -0.104311    -1.041875
 H    -3.091763    -1.294149    -1.816319
 O    -2.523063    -1.439178    -1.032730
 H    -3.155832    -1.374531    -0.286344
 H    -3.695175     2.657810     0.360091
 O    -3.262249     1.776306     0.410106
 H    -2.358840     1.990904     0.681680
 H     0.896648     2.930806     0.029995
 O    -0.097596     2.905822     0.097671
 H    -0.333616     2.078049    -0.396249
 H     2.765382    -0.149569    -0.567585
 O     3.507520     0.501682    -0.626841
 H     3.700500     0.566793    -1.588601
 H     2.264475     3.051710    -1.499733
 O     2.493999     3.042678    -0.537034
 H     2.911669     2.153544    -0.454267
 H     1.013916    -1.800558    -0.514002
 O     1.619960    -1.323012     0.103207
 H     1.065331    -0.755485     0.700523
 H    -4.214192    -0.011372     0.976790
 O    -4.427968    -0.958013     0.928311
 H    -5.319678    -0.983750     0.525243
 H     3.037168    -3.033696     2.259015
 O     3.382368    -2.668650     1.439407
 H     2.617288    -2.194219     0.986403
 N     0.425245     0.318345     2.033134
 H     0.258522     1.237155     1.621568
 H     1.064568     0.442689     2.812783
 H    -0.455915    -0.002145     2.422701
