28
CP_grain_mol38 // 0.000337680362 // -668.032843187 // -0.0451921173
 H    -0.488739     1.549259    -1.409104
 O    -0.454391     2.533679    -1.400338
 H    -1.397895     2.777125    -1.424358
 H    -1.077906    -0.383310    -2.059862
 O    -0.341027    -0.207613    -1.434656
 H     0.480695    -0.266305    -1.997811
 H     1.187263     2.295774    -0.373916
 O     1.959288     1.845469     0.014221
 H     1.640218     0.960364     0.234757
 H     0.932662    -1.742736     0.872206
 O     1.707774    -1.239331     1.208517
 H     2.321100    -1.964090     1.469256
 H    -1.276675    -2.594799     0.047504
 O    -0.337158    -2.486023    -0.160305
 H    -0.351806    -1.619323    -0.664198
 H    -2.808978    -0.734085     0.007125
 O    -3.067517    -1.579744    -0.428905
 H    -3.484194    -1.253583    -1.248556
 H     2.909355    -1.001434    -0.113557
 O     3.581460    -0.837677    -0.811089
 H     3.999881    -0.000962    -0.560810
 H    -1.722876     0.977985     1.242941
 O    -2.608958     0.883872     0.788985
 H    -2.612693     1.533038     0.071767
 N    -0.264827     1.010609     2.297774
 H     0.342491     0.193561     2.235683
 H    -0.579366     1.080463     3.260918
 H     0.325489     1.817730     2.114166
