37
CP_grain_mol144 // 0.000365599741 // -897.332720921 // -0.0608504387
 H     2.738878    -0.579597    -0.854650
 O     3.021178     0.295699    -0.482315
 H     3.866649     0.498357    -0.909912
 H     2.712615    -2.748531    -0.576790
 O     2.298269    -2.149226    -1.235456
 H     2.799477    -2.372798    -2.058885
 H     0.593014    -2.147283    -1.191575
 O    -0.362594    -1.912646    -1.231686
 H    -0.368705    -0.929531    -1.132244
 H     0.366455     0.940839    -1.892115
 O    -0.425731     0.758564    -1.329994
 H    -0.452295     1.519590    -0.698750
 H     2.060084     3.217759    -1.145870
 O     2.076569     2.813442    -0.251789
 H     2.257856     1.860631    -0.437101
 H    -1.982095     0.745327    -1.817085
 O    -2.949420     0.602976    -1.994396
 H    -3.304996     0.333179    -1.093467
 H     3.904843    -0.349158     1.018217
 O     4.757823    -0.690163     1.344121
 H     4.826685    -0.457081     2.277666
 H    -3.285547    -1.184932     0.453893
 O    -3.764116    -0.334694     0.328969
 H    -3.329362     0.270690     0.984117
 H    -1.499846    -2.560791    -0.093167
 O    -2.225584    -2.652033     0.571996
 H    -2.512481    -3.570301     0.527910
 H    -1.810317     1.953119     1.498949
 O    -2.248767     1.216730     1.952894
 H    -1.515117     0.570989     2.125683
 H    -0.826278     3.600949    -0.493774
 O    -0.592690     2.969635     0.209657
 H     0.394770     3.011963     0.222807
 N    -0.297101    -0.805318     2.223312
 H     0.123945    -0.957619     3.134364
 H     0.463370    -0.729333     1.554429
 H    -0.821395    -1.645490     1.978169
