25
CP_grain_mol1 // 0.000276346051 // -591.615084476 // -0.0350284948
 H     1.224584     2.112404    -0.230582
 O     0.617249     1.402859    -0.556355
 H    -0.295268     1.782422    -0.392446
 H    -1.215610    -1.367690     0.927159
 O    -1.635569    -1.571348     0.049478
 H    -0.907257    -1.726497    -0.572910
 H     1.321397    -1.865428    -2.341442
 O     0.754918    -2.249082    -1.638036
 H     0.571496    -3.132851    -1.992591
 H    -4.010049     0.079643    -1.102286
 O    -3.483688     0.305001    -0.322821
 H    -2.833090    -0.448287    -0.227492
 H    -2.045584     2.933946     0.363025
 O    -1.802684     2.407687    -0.431735
 H    -2.460812     1.664156    -0.454201
 H     1.817414    -1.451305    -0.045338
 O     1.998252    -0.685931     0.524540
 H     1.379341     0.004508     0.189120
 H     3.443725     0.514990     0.238736
 O     4.049764     1.213718    -0.085883
 H     3.603491     2.044914     0.139943
 N    -0.421478    -0.811939     2.436950
 H    -0.533666    -1.366839     3.279196
 H    -0.661023     0.146479     2.673621
 H     0.565320    -0.824221     2.176328
