25
CP_grain_mol3 // 0.000276400726 // -591.615081743 // -0.0350337524
 H     1.224588     2.111470    -0.233916
 O     0.617243     1.401387    -0.558522
 H    -0.295264     1.781187    -0.395213
 H    -1.215681    -1.365425     0.929443
 O    -1.635405    -1.571755     0.052284
 H    -0.906986    -1.728153    -0.569671
 H     1.321244    -1.869347    -2.338317
 O     0.754921    -2.252316    -1.634417
 H     0.571568    -3.136438    -1.988151
 H    -4.010384     0.077121    -1.102264
 O    -3.483661     0.303624    -0.323391
 H    -2.833067    -0.449557    -0.226857
 H    -2.045770     2.933589     0.358476
 O    -1.802760     2.406141    -0.435425
 H    -2.460773     1.662468    -0.456903
 H     1.817918    -1.452006    -0.042845
 O     1.998495    -0.685499     0.525567
 H     1.379658     0.004232     0.188565
 H     3.444221     0.514675     0.238358
 O     4.050009     1.213080    -0.087441
 H     3.603564     2.044480     0.137257
 N    -0.422026    -0.804005     2.437559
 H    -0.661537     0.155417     2.670219
 H     0.564956    -0.817522     2.177668
 H    -0.534803    -1.355448     3.282009
