34
CP_grain_mol8 // 0.000390724532 // -820.888751842 // -0.0518507072
 H     1.026703    -1.366577     1.874989
 O     1.924851    -1.398079     2.263639
 H     2.124274    -0.472293     2.498964
 H     1.702634    -3.294370    -0.302184
 O     0.832913    -3.397346    -0.731950
 H     0.566721    -4.292480    -0.436953
 H    -3.925916     0.731331     0.144389
 O    -4.400506    -0.112008     0.239765
 H    -3.920900    -0.696013    -0.400236
 H    -2.587840     2.977770     0.343637
 O    -2.584019     2.026637     0.522784
 H    -2.982899     1.996095     1.431551
 H     0.314100     2.036271     1.728753
 O    -0.128224     1.205638     1.466437
 H    -0.969255     1.500975     1.055920
 H     1.522261     4.368325    -1.335700
 O     1.102607     3.588621    -0.945314
 H     0.529488     3.975583    -0.256745
 H    -2.048331    -1.784201    -0.415819
 O    -2.737326    -1.751756    -1.117409
 H    -3.040719    -2.675411    -1.187358
 H     1.490011     0.911429     0.379070
 O     2.304088     1.235693    -0.049652
 H     1.996961     2.077133    -0.448394
 H    -0.067901    -2.301975     0.191108
 O    -0.498748    -1.561219     0.683659
 H    -0.362896    -0.808096     0.061079
 H     4.721537    -0.933497    -0.017384
 O     4.572537    -0.340411    -0.768408
 H     3.713154     0.082325    -0.573521
 N    -0.285380     0.159523    -1.581271
 H     0.557132    -0.045938    -2.109071
 H    -0.392511     1.168683    -1.580276
 H    -1.073530    -0.237895    -2.085343
