34
CP_grain_mol92 // 0.000410525633 // -820.898813439 // -0.0540087871
 H     0.924776     2.044371     1.464517
 O     0.130343     1.488381     1.572936
 H     0.337955     0.692527     1.056553
 H    -2.655738    -1.212110     1.815444
 O    -1.906726    -0.691370     2.167444
 H    -1.110044    -0.996093     1.667116
 H     2.531978     0.426426     1.139340
 O     2.518611     0.306096     0.165283
 H     2.519072    -0.669435     0.068588
 H     3.334680    -2.590761     0.872406
 O     3.109260    -2.479084    -0.083051
 H     3.921470    -2.063836    -0.432522
 H     3.738197     1.217514    -0.425287
 O     4.597736     1.660530    -0.674367
 H     4.383433     2.581128    -0.880290
 H     0.696352    -1.822851     1.863236
 O     0.308892    -1.438511     1.052358
 H    -0.044491    -2.174614     0.515701
 H    -1.103804     2.541013     0.953380
 O    -1.642336     3.258434     0.541285
 H    -1.076877     4.040284     0.679511
 H    -1.573596     1.084876    -1.756766
 O    -2.429084     1.507965    -1.486434
 H    -2.160501     2.238275    -0.892943
 H    -1.871971    -3.520956    -0.754819
 O    -1.442943    -2.660853    -0.683334
 H    -2.188532    -2.008580    -0.634301
 H    -3.116442     0.100480    -0.849954
 O    -3.436614    -0.790142    -0.539635
 H    -4.160781    -1.031661    -1.126731
 N    -0.066742     0.054179    -2.042197
 H     0.712000     0.241579    -1.414715
 H     0.294192     0.133863    -2.987958
 H    -0.321246    -0.922261    -1.904015
