37
CP_grain_mol89 // 0.000283552333 // -897.358614688 // -0.0616776845
 H    -0.656852     0.377893    -2.885002
 O    -0.790495     0.275654    -1.906299
 H    -1.772253     0.252384    -1.766163
 H     1.099705     0.569766    -1.616318
 O     2.021328     0.724483    -1.865801
 H     2.571504     0.492328    -1.073915
 H    -0.421929    -2.787473    -1.045479
 O    -0.338027    -1.993238    -0.458631
 H    -0.464463    -1.241166    -1.088495
 H     2.549026    -3.021610    -1.015518
 O     2.381561    -2.193449    -0.518716
 H     1.404076    -2.147245    -0.445753
 H     3.133284     1.460603     0.662360
 O     3.690805     0.744814     0.281065
 H     3.723415     0.012967     0.928757
 H    -2.108585    -2.253399    -0.029125
 O    -3.086757    -2.239896     0.071028
 H    -3.379727    -2.993959    -0.476359
 H    -3.386528    -0.780559    -0.737750
 O    -3.394655     0.094579    -1.210327
 H    -3.462353     0.766070    -0.503580
 H     3.326328    -2.003784     2.415545
 O     3.726662    -1.684545     1.602178
 H     3.122355    -1.989078     0.842531
 H    -3.725389     2.312967     1.483631
 O    -3.042794     1.796575     1.042624
 H    -2.817182     1.023592     1.649276
 H     1.143299     2.728789     0.449627
 O     2.096571     2.931102     0.605712
 H     2.418408     3.146328    -0.304546
 H    -1.345784     2.404692     0.378781
 O    -0.495259     2.450996    -0.092538
 H    -0.588518     1.803667    -0.816724
 N    -2.288420    -0.437543     2.422921
 H    -2.803665    -1.209214     2.001189
 H    -2.381729    -0.521926     3.430831
 H    -1.309030    -0.596436     2.199388
