34
CP_grain_mol69 // 0.0002946553 // -820.89755609 // -0.0562397426
 H    -1.031450     0.918044    -3.101879
 O    -1.228758     0.773871    -2.137956
 H    -2.175841     1.010912    -2.054730
 H     0.700754     0.679944    -1.792836
 O     1.629092     0.692973    -2.053482
 H     2.143667     0.337930    -1.274292
 H    -1.617516    -2.262082    -1.264980
 O    -1.372037    -1.520382    -0.651809
 H    -1.295263    -0.764360    -1.280398
 H     1.229695    -3.073137    -1.393368
 O     1.268121    -2.208426    -0.932282
 H     0.329346    -2.002677    -0.755368
 H     2.928913     1.050215     0.503946
 O     3.266840     0.264859     0.031632
 H     3.094538    -0.533077     0.605845
 H    -3.034947    -1.307501    -0.230539
 O    -3.975921    -1.017456    -0.118026
 H    -4.484579    -1.654007    -0.655312
 H     1.910326    -1.638561     1.917847
 O     2.602246    -1.965938     1.302149
 H     2.056932    -2.176621     0.486017
 H    -3.682639     0.471482     1.138159
 O    -3.339771     1.345181     1.405729
 H    -3.501324     1.406053     2.353038
 H     1.186864     2.599536     0.449172
 O     2.144365     2.781151     0.491565
 H     2.424420     2.900417    -0.448180
 H    -1.440641     1.761587     0.841288
 O    -0.569097     1.810094     0.410306
 H    -0.760484     1.604851    -0.523471
 N     0.266934    -0.742771     2.438178
 H     0.109106    -0.409243     3.384744
 H    -0.470167    -1.412640     2.236032
 H     0.111112     0.044911     1.809407
