34
CP_grain_mol130 // 0.000409765964 // -820.898735302 // -0.0539770345
 H     0.930565     2.049644     1.465183
 O     0.137321     1.491141     1.570029
 H     0.347825     0.698311     1.050372
 H    -2.652648    -1.209671     1.817868
 O    -1.901960    -0.690377     2.168471
 H    -1.106944    -0.994645     1.665207
 H     2.536849     0.424526     1.142901
 O     2.521395     0.305039     0.168685
 H     2.518107    -0.670263     0.070852
 H     3.332985    -2.594101     0.870356
 O     3.106255    -2.483154    -0.084815
 H     3.917580    -2.067385    -0.435562
 H     3.740119     1.216140    -0.426401
 O     4.598940     1.658798    -0.678113
 H     4.384015     2.579146    -0.884519
 H     0.697544    -1.823538     1.858904
 O     0.309860    -1.440398     1.047687
 H    -0.045799    -2.177202     0.513627
 H    -1.099414     2.542165     0.952832
 O    -1.638711     3.259698     0.542056
 H    -1.073609     4.041679     0.681287
 H    -1.577260     1.087187    -1.756342
 O    -2.431413     1.511639    -1.484402
 H    -2.160432     2.241390    -0.891266
 H    -1.881928    -3.521942    -0.752488
 O    -1.450249    -2.663271    -0.679618
 H    -2.193746    -2.008649    -0.631075
 H    -3.118029     0.104269    -0.845820
 O    -3.437508    -0.786441    -0.535291
 H    -4.165211    -1.026015    -1.118813
 N    -0.072511     0.051900    -2.044268
 H    -0.328818    -0.923854    -1.904646
 H     0.708256     0.238084    -1.419047
 H     0.286121     0.130031    -2.991033
