25
CP_grain_mol50 // 0.000273867967 // -591.611066375 // -0.0346327867
 H    -2.349674     2.260636     0.243956
 O    -1.527186     2.232740    -0.305204
 H    -1.823009     1.967477    -1.202988
 H     1.593811     2.731911    -0.030308
 O     1.070573     2.174850     0.593792
 H     0.192914     2.113853     0.159541
 H     1.651204     0.554604     0.307836
 O     1.969596    -0.375704     0.195096
 H     1.463461    -0.721370    -0.574349
 H    -0.514674    -1.356938    -1.502763
 O     0.379227    -1.397790    -1.899124
 H     0.542572    -2.342332    -2.066113
 H    -4.782511    -0.987759    -0.868913
 O    -4.435078    -0.343376    -0.232139
 H    -3.478776    -0.575610    -0.141362
 H     3.597090    -0.237526    -0.118131
 O     4.511925    -0.056145    -0.478968
 H     5.124802    -0.572755     0.051751
 H    -1.243716    -0.993233     0.808166
 O    -1.723503    -0.651188     0.003726
 H    -1.498573     0.295544    -0.032379
 N    -0.128647    -1.462276     2.126945
 H    -0.079953    -2.440061     2.394610
 H    -0.216965    -0.920931     2.981324
 H     0.758105    -1.206670     1.684075
