28
CP_grain_mol137 // 0.000339211526 // -668.034292171 // -0.0461305828
 H    -0.420545     0.117473    -1.466833
 O    -0.208785     0.987182    -1.877668
 H    -0.994481     1.554550    -1.692800
 H    -0.741575    -2.116676    -1.097949
 O    -0.095614    -1.472334    -0.767132
 H    -0.126901    -1.457328     0.227014
 H    -2.814921    -1.948790     0.711703
 O    -2.621859    -1.026899     0.958361
 H    -3.417802    -0.778949     1.496147
 H     2.407032    -1.112295    -1.695379
 O     2.597796    -1.689135    -0.914219
 H     1.675218    -1.920733    -0.683446
 H    -3.131011     1.081503    -1.250316
 O    -3.363986     0.142459    -1.335487
 H    -3.067135    -0.265267    -0.483018
 H     0.829595     1.591735    -0.616805
 O     1.250236     2.011456     0.174858
 H     2.117787     1.550077     0.286276
 H     4.250510     0.815179    -0.234321
 O     3.552532     0.573848     0.395711
 H     3.238703    -0.294712     0.057072
 H    -0.318610     1.868233     1.087027
 O    -1.276645     1.906520     1.312431
 H    -1.573815     0.988547     1.341817
 N     0.330363    -1.143671     1.938583
 H     0.781957    -0.235861     2.018263
 H     0.895100    -1.814770     2.449037
 H    -0.571036    -1.080997     2.401582
