25
CP_grain_mol7 // 0.000278581627 // -591.615020024 // -0.0351105389
 H     1.225780     2.097794    -0.274793
 O     0.619670     1.380487    -0.585599
 H    -0.293555     1.762146    -0.431044
 H    -1.216162    -1.330196     0.955538
 O    -1.635268    -1.575872     0.088150
 H    -0.906458    -1.747965    -0.529127
 H     1.325182    -1.926671    -2.294385
 O     0.757924    -2.294976    -1.583523
 H     0.575859    -3.186560    -1.918646
 H    -4.015304     0.046738    -1.105725
 O    -3.486423     0.286886    -0.332461
 H    -2.836606    -0.465061    -0.222231
 H    -2.045872     2.928076     0.298895
 O    -1.801773     2.384181    -0.483495
 H    -2.460762     1.641094    -0.491405
 H     1.823039    -1.462231    -0.006241
 O     2.004066    -0.681197     0.541750
 H     1.384894    -0.000484     0.187740
 H     3.448354     0.513394     0.231162
 O     4.053386     1.205931    -0.108340
 H     3.605890     2.041070     0.099690
 N    -0.433459    -0.698705     2.440509
 H    -0.565684    -1.200585     3.312582
 H    -0.663892     0.275114     2.615425
 H     0.556851    -0.738270     2.197147
