22
CP_grain_mol105 // 0.000321389901 // -515.142903694 // -0.0303723354
 H     1.417305    -0.523809    -2.286430
 O     2.109179    -0.387954    -1.607231
 H     2.933470    -0.289648    -2.118993
 H    -1.819800    -0.631666    -1.165300
 O    -1.774753    -1.143949    -0.331422
 H    -1.707458    -2.061803    -0.656213
 H    -0.733524     1.325431     0.330428
 O    -1.288294     1.940304    -0.184662
 H    -0.944298     1.888551    -1.103171
 H    -4.536368     0.322077    -0.276119
 O    -4.503695    -0.613697    -0.015306
 H    -3.542466    -0.806034    -0.004023
 H     3.854932    -0.631881     0.917056
 O     3.333145    -1.426051     0.697145
 H     2.760742    -1.128717    -0.036578
 H     1.294254     1.445349     0.747266
 O     1.933031     1.715254     0.068798
 H     1.973664     0.926736    -0.515185
 N     0.076562     0.050611     1.664367
 H     0.943861    -0.451292     1.841878
 H    -0.507018    -0.570109     1.097462
 H    -0.392138     0.161282     2.558766
