28
CP_grain_mol49 // 0.00036272284 // -668.024532788 // -0.0449464019
 H     1.932143    -0.146164    -0.538400
 O     2.330945    -0.157516    -1.428187
 H     2.883768    -0.968492    -1.377546
 H    -0.849005    -0.767450     0.363577
 O    -0.893576    -1.168229    -0.551125
 H    -0.347691    -1.981203    -0.483200
 H     1.450470    -3.061834    -1.137521
 O     1.025431    -2.968476    -0.254344
 H     1.089277    -3.853320     0.140901
 H    -0.687130     2.094904    -0.067309
 O     0.176295     1.698969    -0.261590
 H     0.089840     1.474253    -1.213940
 H    -3.530967     2.320086     0.092854
 O    -2.707124     1.838029    -0.085474
 H    -2.992132     0.904323    -0.223736
 H    -3.576714    -0.636731    -1.625016
 O    -3.427062    -0.828050    -0.665325
 H    -2.455514    -1.098219    -0.651997
 H     2.401958     3.746713    -0.361016
 O     2.537556     2.833856    -0.073857
 H     1.616067     2.459451    -0.106173
 H     1.688418    -1.719468     0.858899
 O     1.942863    -0.896773     1.329417
 H     2.895789    -1.000353     1.472579
 N    -0.960378    -0.110396     1.986820
 H     0.025154     0.029618     2.190113
 H    -1.375351    -0.631719     2.750868
 H    -1.418372     0.793898     1.932197
