34
CP_grain_mol96 // 0.000409786472 // -820.89873647 // -0.0539829776
 H     0.930894     2.049423     1.465272
 O     0.137388     1.491257     1.570060
 H     0.347763     0.698371     1.050409
 H    -2.652454    -1.209697     1.817298
 O    -1.901688    -0.690413     2.167786
 H    -1.106531    -0.995111     1.664902
 H     2.537201     0.424841     1.142365
 O     2.521319     0.305327     0.168153
 H     2.517894    -0.670018     0.070393
 H     3.332864    -2.593432     0.870739
 O     3.105951    -2.482480    -0.084430
 H     3.917457    -2.067318    -0.435498
 H     3.740343     1.215903    -0.427200
 O     4.599503     1.658104    -0.678521
 H     4.385016     2.578560    -0.885025
 H     0.697939    -1.823542     1.859040
 O     0.310269    -1.440516     1.047739
 H    -0.045683    -2.177455     0.513983
 H    -1.099218     2.542784     0.953633
 O    -1.638720     3.259667     0.541965
 H    -1.073865     4.042007     0.679887
 H    -1.578255     1.087097    -1.755486
 O    -2.432473     1.511347    -1.483381
 H    -2.161335     2.240988    -0.890115
 H    -1.881191    -3.521946    -0.752352
 O    -1.449555    -2.663206    -0.679821
 H    -2.193172    -2.008739    -0.631266
 H    -3.118185     0.103879    -0.845388
 O    -3.437750    -0.787014    -0.535275
 H    -4.164933    -1.026640    -1.119399
 N    -0.072987     0.052463    -2.043821
 H    -0.328946    -0.923389    -1.904245
 H     0.707887     0.238762    -1.418779
 H     0.285452     0.130845    -2.990633
