34
CP_grain_mol81 // 0.000396828383 // -820.900333726 // -0.0510202139
 H    -0.504068     0.904065     2.596371
 O    -1.011726     0.249137     2.050844
 H    -1.589402     0.810752     1.490695
 H    -0.405637    -0.847929     0.993298
 O    -0.186385    -1.630148     0.415585
 H    -1.068280    -2.071842     0.220784
 H     3.157336    -1.470562     1.045855
 O     2.366181    -1.378921     1.619002
 H     1.626974    -1.638360     1.049899
 H     1.540316    -3.447413    -1.652929
 O     1.658878    -2.479311    -1.623939
 H     0.973905    -2.183484    -0.995077
 H    -2.702459    -3.105076     0.945647
 O    -2.450958    -2.865893     0.018918
 H    -3.054397    -2.127603    -0.207327
 H    -3.411357     0.335057    -0.294604
 O    -3.759931    -0.487376    -0.697720
 H    -4.717664    -0.392060    -0.669597
 H    -1.886710     2.369796    -0.071392
 O    -2.547223     1.803251     0.388487
 H    -2.768110     2.356403     1.169501
 H    -1.158692     4.423163    -0.751364
 O    -0.644804     3.628928    -0.561362
 H    -0.256561     3.824238     0.320356
 H     4.830068     0.134760    -0.678211
 O     4.499939     0.432956     0.172827
 H     3.627843     0.865749    -0.003518
 H     2.213135     2.682410    -0.157939
 O     2.129725     1.746659     0.050287
 H     1.487780     1.382531    -0.624936
 N     0.437397     0.558210    -1.774064
 H     0.895590    -0.038122    -2.458808
 H    -0.143255     1.219980    -2.277314
 H    -0.177700    -0.048174    -1.234364
