22
CP_grain_mol45 // 0.000213605976 // -515.154879625 // -0.0312710515
 H     2.227923    -1.353195    -0.260999
 O     3.190057    -1.301406    -0.381539
 H     3.335276    -0.324127    -0.479636
 H    -0.554515    -0.886059    -0.936378
 O     0.416751    -0.988980    -0.977224
 H     0.571273    -1.098177    -1.938450
 H     0.631736     1.836791    -1.991520
 O     0.611171     1.743548    -1.009437
 H     0.718894     0.772243    -0.904724
 H    -0.861887     1.798926    -0.200006
 O    -1.677858     1.855288     0.370704
 H    -2.228983     1.136662     0.031672
 H    -2.483887    -1.067801    -1.864881
 O    -2.441982    -0.535864    -1.040981
 H    -2.415878    -1.155191    -0.273568
 H     2.384788     0.547272     2.250435
 O     1.731886     0.880445     1.611922
 H     1.680578     1.838443     1.814400
 N    -1.808438    -1.517451     1.513488
 H    -2.532447    -1.553525     2.224501
 H    -1.200577    -0.732308     1.739551
 H    -1.253418    -2.362039     1.607638
