31
CP_grain_mol72 // 0.000405347338 // -744.462845562 // -0.0518508376
 H     0.626732    -0.187973    -1.451944
 O     1.411212    -0.721312    -1.702556
 H     1.127364    -1.643436    -1.573555
 H     1.892972     2.531770    -1.765971
 O     1.628137     2.583809    -0.817847
 H     0.742635     2.143331    -0.815722
 H    -1.428377     1.237530    -1.055586
 O    -0.528756     1.025992    -0.753685
 H    -0.532835     0.656547     0.167739
 H    -1.087803    -1.740945    -1.438121
 O    -0.982938    -2.196436    -0.576899
 H    -0.988247    -3.144698    -0.824343
 H    -3.733185    -0.534695    -0.384931
 O    -4.293544    -0.165900    -1.123946
 H    -3.743386     0.521318    -1.564248
 H    -2.136480    -1.562821     0.408562
 O    -2.921882    -1.188107     0.892449
 H    -2.615413    -0.362640     1.310087
 H     2.668693    -0.083779    -0.724478
 O     3.204848     0.508857    -0.141023
 H     2.684059     1.346831    -0.201615
 H    -1.944387     2.250485     1.530109
 O    -2.547923     1.547487     1.805578
 H    -3.411272     1.815811     1.432265
 H     4.785520    -1.449247     1.870833
 O     4.951595    -1.213921     0.953587
 H     4.285894    -0.520691     0.718955
 N     0.290680    -0.204015     1.543279
 H    -0.054082    -0.117221     2.492384
 H     1.287333    -0.001747     1.530818
 H     0.173507    -1.169371     1.250561
