28
CP_grain_mol127 // 0.00034246137 // -668.044239999 // -0.0409682897
 H    -2.372951    -2.181937     0.270428
 O    -1.872667    -2.980426     0.020939
 H    -2.389270    -3.743469     0.340899
 H    -1.017158    -1.060435    -2.218615
 O    -0.585872    -0.359297    -1.683089
 H    -0.043284    -0.876238    -1.028759
 H     0.416559    -1.059643     0.993058
 O     0.702655    -1.715341     0.285954
 H     0.058556    -2.442436     0.331499
 H     2.494049    -1.604692     0.134904
 O     3.434584    -1.476712    -0.112404
 H     3.586791    -0.498437    -0.090916
 H     4.812099     1.315764    -0.729795
 O     3.951193     1.151959    -0.327096
 H     3.322136     1.669914    -0.892839
 H    -3.584043    -0.367616    -0.613595
 O    -2.802641    -0.232500    -0.039724
 H    -2.041538    -0.242896    -0.676054
 H    -0.790660     2.678649    -0.099834
 O     0.184671     2.712198     0.069562
 H     0.327200     3.557573     0.509324
 H    -2.922009     2.747461    -1.013357
 O    -2.533282     2.515560    -0.162015
 H    -2.735294     1.553739    -0.054814
 N    -0.059795     0.271649     1.986914
 H     0.390914     0.341097     2.894223
 H    -1.062794     0.256081     2.148551
 H     0.140143     1.132454     1.470286
