31
CP_grain_mol100 // 0.000354979048 // -744.487900383 // -0.0482007366
 H     0.015311     0.068615     2.889208
 O     0.100410     0.951246     2.467723
 H    -0.170685     0.804160     1.547208
 H     1.919707    -1.296829     1.598875
 O     1.559815    -1.028929     0.724558
 H     1.763893    -0.063894     0.669076
 H     2.265408     2.069320     1.294795
 O     2.506997     1.576017     0.484256
 H     2.085539     2.116014    -0.218857
 H    -1.893987     1.202405    -0.200889
 O    -0.920063     1.246208    -0.319324
 H    -0.687724     0.558832    -1.009120
 H    -0.287548    -3.403424     0.264021
 O    -0.656084    -2.487968     0.222472
 H     0.097166    -1.902821     0.480731
 H    -3.937433    -2.075357     0.251930
 O    -3.268900    -1.464309    -0.131508
 H    -2.405427    -1.881985     0.056770
 H    -4.265523     1.275933    -0.281423
 O    -3.638678     1.030874     0.408148
 H    -3.530464     0.027270     0.290229
 H     4.279490    -1.528982     0.027020
 O     3.681503    -2.148839    -0.453496
 H     2.808667    -1.776917    -0.181192
 H     0.225039     2.621139    -1.104742
 O     1.025356     3.154509    -1.272913
 H     0.795944     4.021677    -0.882298
 N    -0.240502    -0.657776    -2.188640
 H    -0.832907    -0.660564    -3.012858
 H    -0.406957    -1.530928    -1.687895
 H     0.723148    -0.669708    -2.509440
