13
CP_grain_mol151 // 0.00019380822 // -285.865722983 // -0.0178230079
 H    -0.454906     0.712002    -1.238766
 O    -0.837042     1.470682    -0.759085
 H    -1.168095     1.012502     0.047728
 H    -0.910244    -0.967073     0.489293
 O    -1.365049    -0.447256     1.183277
 H    -2.273297    -0.806908     1.173831
 H     0.380608    -1.968883    -1.543787
 O     0.194238    -1.130662    -1.078402
 H     1.020061    -0.877664    -0.605223
 N     1.928607     0.294353     0.618139
 H     1.437507     1.148587     0.360323
 H     2.920591     0.500049     0.673312
 H     1.610353     0.044803     1.549996
