25
CP_grain_mol5 // 0.000276600274 // -591.615077022 // -0.0350451391
 H     1.224917     2.110280    -0.238825
 O     0.617849     1.399168    -0.561720
 H    -0.294835     1.778997    -0.399452
 H    -1.216136    -1.361273     0.932118
 O    -1.635357    -1.572397     0.055822
 H    -0.906506    -1.730507    -0.565195
 H     1.322709    -1.876107    -2.332725
 O     0.756262    -2.257321    -1.627988
 H     0.573318    -3.142477    -1.979301
 H    -4.011687     0.073894    -1.102706
 O    -3.484108     0.301470    -0.324740
 H    -2.833679    -0.451712    -0.227251
 H    -2.045669     2.932796     0.351397
 O    -1.802492     2.403364    -0.441153
 H    -2.460667     1.659810    -0.461027
 H     1.818402    -1.452826    -0.037988
 O     1.998962    -0.684690     0.528202
 H     1.380226     0.004110     0.189157
 H     3.444385     0.514393     0.237698
 O     4.050252     1.211974    -0.089772
 H     3.603878     2.043952     0.132879
 N    -0.424313    -0.791481     2.437603
 H     0.563203    -0.808199     2.180003
 H    -0.539816    -1.337160     3.285414
 H    -0.662804     0.169841     2.663371
