604
grain_mol87 // -1645.759274173028 // -45.0409558507 // -668.016667903728 // -1022.78356212 // -0.0379811187 // -0.583888156351 // -0.010523974692
 H    -1.871771    -0.122042     2.472150
 O    -0.896030    -0.109922     2.576521
 H    -0.640907    -1.012277     2.882236
 H    -0.394641    -1.773588    -2.879836
 O    -0.491713    -1.817222    -1.915956
 H    -1.442357    -1.716229    -1.741934
 H    -2.766586     1.836059     0.882481
 O    -2.661982     1.213510     0.143430
 H    -1.860252     1.498707    -0.331261
 H    -3.665736     2.060764    -3.006542
 O    -3.128218     2.419804    -3.750929
 H    -2.230209     2.529824    -3.421319
 H    -0.130310    -0.606840    -0.777242
 O    -0.009775     0.104187    -0.118446
 H    -0.461138    -0.198016     0.680598
 H     1.002934    -1.804983    -4.776299
 O     0.058538    -1.977657    -4.626846
 H    -0.047274    -2.938779    -4.690308
 H    -4.903014     2.504736    -1.279561
 O    -4.539769     1.683573    -1.664616
 H    -3.884426     1.377666    -0.993359
 H    -3.589567     3.348950     2.549071
 O    -2.871381     2.724858     2.329151
 H    -2.106045     3.043906     2.841917
 H     2.596469     0.300000    -2.828099
 O     1.972029    -0.335913    -2.421486
 H     1.078922    -0.006922    -2.639443
 H    -1.079344     0.434646    -3.568727
 O    -0.273388     0.894256    -3.254398
 H    -0.529820     1.475940    -2.519940
 H     2.618330    -0.642074     0.658956
 O     2.528921    -1.370475     0.010346
 H     2.291995    -0.961300    -0.843921
 H    -2.874129    -0.413111    -0.627414
 O    -2.997979    -0.850418    -1.480306
 H    -3.811763    -1.384866    -1.437613
 H     2.826369     1.226735    -0.656619
 O     2.011806     1.748679    -0.545662
 H     1.283340     1.107540    -0.405631
 H     0.662471     3.256222    -3.089862
 O     1.572174     3.052438    -2.836645
 H     1.548379     2.568253    -1.991301
 H     0.043367    -3.982349    -0.611443
 O    -0.183215    -4.648679    -1.299017
 H    -0.982691    -5.098572    -0.941854
 H    -6.313454     2.153703     2.969563
 O    -6.391685     2.331658     3.943413
 H    -7.158162     1.807734     4.249119
 H     1.017125    -3.778296     1.271943
 O     0.628266    -3.109554     0.679021
 H     1.324345    -2.456372     0.461822
 H    -2.820387     5.291663    -0.878863
 O    -2.665481     4.478155    -0.363037
 H    -3.563552     4.121086    -0.201173
 H    -5.599074    -1.227079     1.563237
 O    -5.299909    -0.578076     0.891155
 H    -5.394368    -1.014706     0.039281
 H    -0.498195    -3.280007     2.989200
 O    -0.186562    -2.485429     3.454788
 H     0.763901    -2.397026     3.274942
 H     5.258768     0.965084    -0.967836
 O     4.460417     0.443528    -0.801929
 H     4.662899     0.005438     0.054778
 H     0.713816     2.350137     1.177539
 O     0.678560     1.989924     2.073089
 H     0.054715     1.241308     2.089383
 H     4.464210    -0.521059    -2.190095
 O     4.677497    -0.990803    -3.027967
 H     5.182174    -0.338835    -3.559073
 H     3.095240     3.226674    -0.792859
 O     3.979386     3.612295    -0.738108
 H     4.479178     3.333464    -1.529889
 H    -5.885662    -1.353828    -2.034944
 O    -5.378700    -2.073335    -1.599933
 H    -5.289075    -2.775230    -2.267580
 H    -5.041400    -4.015347     1.061002
 O    -5.711683    -3.365722     0.777335
 H    -5.454328    -3.064359    -0.104311
 H     2.806609     2.190147    -3.496343
 O     3.469584     1.499894    -3.700515
 H     3.569520     1.485857    -4.659023
 H    -5.212556     3.838331     3.759630
 O    -4.619348     4.428747     3.283183
 H    -4.099295     4.936222     3.942417
 H     0.741110     1.110508    -4.638917
 O     1.247099     1.006126    -5.470717
 H     1.839723     0.241458    -5.315592
 H     1.153597     5.821163    -2.062722
 O     1.928997     5.469630    -1.593034
 H     2.492445     5.029714    -2.260384
 H    -2.834197    -3.390720    -1.904808
 O    -3.009730    -3.662830    -0.988096
 H    -3.784258    -4.242733    -0.992398
 H     2.248923     5.238822    -4.302688
 O     1.386426     5.354203    -4.738823
 H     1.380218     4.674054    -5.438807
 H     7.788881     1.722181    -0.628014
 O     7.005643     1.384320    -1.099649
 H     7.368422     0.711141    -1.710379
 H     4.510625     2.683819     0.567303
 O     4.816920     2.298308     1.413471
 H     4.742919     3.033051     2.057357
 H     1.033540    -3.144643    -2.197289
 O     1.904247    -2.996082    -2.594187
 H     2.009000    -2.021243    -2.597856
 H     1.247096     4.590805    -0.398745
 O     0.763083     4.109595     0.310227
 H     0.087690     4.721912     0.652746
 H    -5.785764     1.050010     1.173842
 O    -6.262247     1.880836     1.373371
 H    -7.192662     1.666066     1.108118
 H    -2.355259    -2.619449     0.175684
 O    -1.884138    -2.073092     0.833665
 H    -0.981331    -2.431930     0.843358
 H    -3.817098    -0.420387     4.212589
 O    -3.835562    -0.578869     5.184048
 H    -4.604667    -1.151400     5.406152
 H    -6.217202    -2.869730     3.035614
 O    -5.761147    -2.020482     3.157157
 H    -4.812486    -2.263119     3.171720
 H    -2.823481    -0.285710    -3.035694
 O    -2.540127    -0.330297    -3.976209
 H    -2.396190    -1.297734    -4.075499
 H    -3.438208    -3.249891    -3.854910
 O    -2.578033    -2.889808    -3.581142
 H    -1.890359    -3.530121    -3.850856
 H     3.273513    -1.111936    -4.182087
 O     2.738046    -1.204720    -4.993257
 H     3.386229    -1.358168    -5.699790
 H     4.557109     2.440793    -6.336014
 O     4.111212     1.559579    -6.422917
 H     3.269779     1.745991    -6.859216
 H    -4.336361     0.849220     5.747499
 O    -4.811137     1.675630     6.020489
 H    -5.353137     1.928834     5.246021
 H    -4.028976    -0.104712     1.944220
 O    -3.503634     0.179108     2.711810
 H    -3.402879     1.151141     2.659221
 H    -5.763508     0.720563    -2.323849
 O    -6.305549     0.078561    -2.827423
 H    -5.858737    -0.000140    -3.692421
 H     1.896209    -3.748722    -4.155700
 O     1.851976    -4.183339    -5.029956
 H     1.431386    -5.043652    -4.869880
 H     4.400077    -3.633590    -0.612688
 O     4.677532    -2.904018    -0.015789
 H     3.925291    -2.266302    -0.018918
 H    -0.203417     3.035353    -0.773502
 O    -0.946390     2.686159    -1.293946
 H    -1.652857     3.351862    -1.161190
 H     1.768472     4.302649     1.773432
 O     2.203885     4.405238     2.639336
 H     1.988412     3.604113     3.142021
 H     3.652816     1.050825     1.802101
 O     2.869709     0.480050     1.927381
 H     2.103551     1.072901     2.053426
 H     3.098427    -3.965552    -2.088600
 O     3.781347    -4.612566    -1.784315
 H     4.476509    -4.602855    -2.460953
 H     4.988423    -3.742760    -4.487020
 O     5.401868    -3.463484    -3.633854
 H     5.007994    -2.604456    -3.377665
 H    -1.073465     4.993112     2.284571
 O    -1.224873     5.574173     1.502704
 H    -1.853612     5.105388     0.895596
 H    -5.674297     3.241919     0.484427
 O    -5.198363     3.757754    -0.194154
 H    -5.632131     4.625039    -0.331279
 H     4.857598    -4.043231     2.952083
 O     4.121187    -3.834602     2.371221
 H     4.478536    -3.525801     1.508202
 H     5.756730    -1.445687     1.471034
 O     5.372577    -0.546898     1.480419
 H     6.164458     0.019567     1.562614
 H     1.541727    -6.629430    -3.180601
 O     1.379033    -6.815530    -4.130525
 H     2.262014    -6.891458    -4.521194
 H    -7.308584    -3.536599     0.540039
 O    -8.271227    -3.508997     0.316778
 H    -8.747500    -3.335746     1.157871
 H     3.097398    -2.582260     2.832281
 O     2.418716    -1.908221     3.025338
 H     2.665537    -1.091496     2.554895
 H    -2.022770     2.539851     5.173614
 O    -2.733057     3.190438     5.325665
 H    -3.490411     2.686932     5.679799
 H    -0.922090     0.776967     4.037387
 O    -0.811463     1.302020     4.861724
 H     0.037897     1.745383     4.761861
 H     0.449139     3.636272    -6.766765
 O     1.398126     3.418680    -6.635461
 H     1.394687     2.554933    -6.180443
 H     6.960673    -3.129420     4.809537
 O     6.209703    -3.553975     4.330270
 H     5.399014    -3.200954     4.768176
 H     7.952157     1.295192     1.659886
 O     7.847042     0.359859     1.917896
 H     8.339265    -0.182905     1.274183
 H    -4.012628    -0.294121    -4.728231
 O    -4.933878    -0.308758    -5.085957
 H    -4.894453     0.093334    -5.975162
 H     6.440796    -1.462160    -2.036048
 O     6.826029    -1.954206    -1.305726
 H     6.077951    -2.233278    -0.744633
 H     4.556130    -1.056273     4.546017
 O     4.990662    -0.304789     4.109057
 H     4.958069    -0.438615     3.137828
 H    -0.062180     3.203841     3.023414
 O    -0.688672     3.857332     3.394400
 H    -0.395277     4.084022     4.298041
 H     8.206640    -1.335354    -0.538452
 O     8.989232    -0.988799    -0.055491
 H     9.679552    -1.660762    -0.138766
 H     9.468574    -4.030296     2.268092
 O     9.196319    -3.809877     1.350943
 H     9.976785    -3.639254     0.812421
 H    -2.558334    -2.690411     3.746386
 O    -3.166049    -2.744372     2.999174
 H    -2.686278    -2.398406     2.204825
 H    -2.031345     0.995669    -6.258851
 O    -2.647134     1.754372    -6.289240
 H    -2.918413     1.912924    -5.361055
 H    -1.074064     4.020939    -5.371534
 O    -1.175862     4.018913    -6.352009
 H    -1.773287     3.270925    -6.531725
 H    -4.698930    -6.133955    -1.415720
 O    -5.168795    -5.391668    -1.006945
 H    -5.920918    -5.186939    -1.603182
 H     2.593060    -5.788410    -1.585412
 O     1.777969    -6.327575    -1.535383
 H     1.021094    -5.689685    -1.420336
 H     3.323010    -4.132776    -5.665639
 O     4.288890    -4.133351    -5.910583
 H     4.428538    -3.377964    -6.488160
 H     7.455954     3.272339     2.363490
 O     7.388703     2.942959     1.458402
 H     6.454985     2.629467     1.374054
 H     6.536019    -3.973327     0.394958
 O     7.016231    -4.784877     0.160091
 H     7.897501    -4.648617     0.560564
 H    -7.533553    -4.232167    -2.733288
 O    -7.323715    -5.171757    -2.535240
 H    -7.964594    -5.454809    -1.855193
 H    -4.421070     6.686127     5.069953
 O    -3.534534     6.344249     4.847259
 H    -3.073859     6.105088     5.666009
 H     7.180953     3.281912     5.127739
 O     7.193272     2.908006     4.236994
 H     7.429564     1.967582     4.349665
 H    -5.972630     0.764221     6.865484
 O    -6.756906     0.225880     7.122198
 H    -6.492362    -0.695792     6.965079
 H    -0.505676    -4.764920    -3.030599
 O    -0.649912    -4.637022    -3.985890
 H    -1.247750    -5.330296    -4.293956
 H     6.586700     0.001922     4.518434
 O     7.560277     0.179160     4.503022
 H     7.794830     0.162622     3.548085
 H     4.769205    -6.582858    -3.938805
 O     4.089065    -6.729685    -4.631116
 H     4.239630    -6.042624    -5.288881
 H    -5.846513    -1.631739    -5.399860
 O    -6.470824    -2.382411    -5.548913
 H    -7.310932    -1.940074    -5.836516
 H    -7.819226     0.574886     5.894849
 O    -8.358640     0.938067     5.147441
 H    -8.969847     1.562899     5.541116
 H    -5.223433     5.747926     2.379779
 O    -5.440482     6.671322     2.137666
 H    -4.576098     7.132451     2.153548
 H     5.896646     1.668256    -3.807274
 O     6.077677     0.873452    -4.365983
 H     5.446466     0.973986    -5.092008
 H    -5.807901     6.528707     0.471980
 O    -5.815817     6.332414    -0.488226
 H    -4.915143     6.565461    -0.798026
 H    -0.329727    -7.345580    -3.340323
 O    -1.046735    -7.479158    -2.709549
 H    -0.672778    -7.854908    -1.903857
 H    -2.706663    -1.731082     5.445371
 O    -2.068070    -2.471386     5.579814
 H    -1.232581    -2.023076     5.810280
 H     7.459880    -4.561063    -1.483659
 O     7.599487    -4.524393    -2.454195
 H     6.842108    -4.022471    -2.802122
 H    -8.820243    -2.696129    -3.536026
 O    -7.905776    -2.638993    -3.175577
 H    -7.340596    -2.434902    -3.936201
 H     8.812248    -3.348325    -2.776051
 O     9.459227    -2.628838    -2.933857
 H     8.968666    -1.793872    -2.826223
 H    -5.106222    -4.775441    -3.813558
 O    -5.058839    -3.817243    -3.655325
 H    -5.556871    -3.395776    -4.366553
 H    -3.543960     4.169183    -3.453167
 O    -3.249894     5.007914    -3.061980
 H    -3.513852     5.726991    -3.637228
 H    -0.116533     4.864646    -3.874087
 O    -0.788502     4.178243    -3.713990
 H    -1.573211     4.623686    -3.335701
 H    -2.157243    -4.218117     5.221379
 O    -2.455033    -5.064238     4.852000
 H    -3.380226    -4.898779     4.599290
 H    -2.230046     8.526232    -3.517013
 O    -2.445948     7.581385    -3.655697
 H    -2.229458     7.369306    -4.590284
 H    -2.982906     7.252874     3.419912
 O    -2.885969     7.475032     2.478684
 H    -2.290179     6.786115     2.119627
 H     4.703353     1.352903     4.370263
 O     4.565298     2.314571     4.228253
 H     5.449451     2.669423     4.016953
 H     7.678605    -2.072464     6.397321
 O     8.136073    -2.253245     5.552997
 H     8.116225    -1.391182     5.092145
 H     5.792646    -1.839161     7.877309
 O     6.513481    -1.315781     7.513248
 H     6.075729    -0.544390     7.088703
 H    -1.542525     5.858304    -6.297663
 O    -1.667789     6.795344    -6.082273
 H    -0.788729     7.209486    -6.146110
 H    -8.313956    -0.190943     3.796138
 O    -8.119923    -0.707201     3.001145
 H    -7.223099    -1.070850     3.111746
 H    -8.550068     0.249815     0.047884
 O    -8.587495     0.869167     0.795583
 H    -8.585975     0.301923     1.585438
 H     0.661583    -0.737181     5.938494
 O    -0.184059    -0.813436     6.439402
 H    -0.668777    -0.024133     6.141398
 H    -0.358586     7.056261    -1.432674
 O    -0.302036     6.696373    -2.340645
 H    -1.144181     6.920347    -2.796721
 H     0.422621    -8.055658     0.397409
 O    -0.481569    -8.282315     0.131292
 H    -0.953012    -8.362716     0.988778
 H     1.902561     2.477213     5.391833
 O     1.928887     2.222252     4.445296
 H     2.875442     2.238445     4.213589
 H    -7.965261    -5.229321    -5.811303
 O    -7.059515    -5.090774    -6.133628
 H    -6.893339    -4.142775    -6.048878
 H     2.877279    -7.661101     0.943900
 O     1.997222    -7.280312     0.890073
 H     1.940159    -6.918190    -0.031522
 H     3.579371     5.839284    -7.230629
 O     3.737179     4.883870    -7.406572
 H     2.887079     4.461765    -7.189499
 H    -0.460507     6.960127     0.733402
 O    -0.131606     7.677116     0.165337
 H    -0.797593     8.377067     0.222281
 H     4.337458     3.425243     5.453257
 O     4.244385     4.053633     6.209658
 H     5.118222     4.091754     6.607473
 H     7.496292     2.481100     7.082399
 O     6.982261     3.329504     7.019261
 H     7.468798     3.968918     7.538279
 H     3.923886    -8.044463    -1.133184
 O     4.436792    -7.535867    -0.483838
 H     4.901472    -6.880966    -1.029718
 H     6.652174    -5.982505    -2.670123
 O     5.874465    -6.571135    -2.654665
 H     6.197544    -7.488692    -2.604799
 H    -9.126618    -2.074860     2.778297
 O    -9.618111    -2.879049     2.508163
 H    -10.337900    -2.547462     1.944778
 H    -2.605201     8.744943     1.226333
 O    -2.438838     9.123945     0.347161
 H    -3.222989     9.701899     0.175329
 H     7.903870     0.310676     7.577739
 O     8.268576     1.017791     7.034522
 H     8.135267     0.718728     6.118356
 H    -2.499321     4.925036     7.786137
 O    -2.195711     5.163391     6.911370
 H    -2.386562     4.376016     6.318809
 H    -6.353620    -6.222464    -3.604231
 O    -5.673532    -6.409672    -4.276774
 H    -6.091768    -6.094548    -5.107026
 H     6.645905    -2.981087     2.784156
 O     6.793062    -2.698155     1.862386
 H     7.742745    -2.783777     1.693699
 H     2.409006     6.678337    -0.562483
 O     2.660971     7.398653     0.058078
 H     1.815003     7.739207     0.373981
 H    -4.276116    -7.207053    -3.139423
 O    -3.732263    -7.281853    -2.346884
 H    -2.817171    -7.408244    -2.656075
 H     1.067826     6.833602    -5.389694
 O     0.918322     7.719927    -5.794566
 H     0.928131     8.331330    -5.029096
 H    -8.301382    -1.464784    -1.851722
 O    -8.608987    -1.215942    -0.966257
 H    -8.403297    -2.021974    -0.441058
 H    -3.152235     7.216153    -2.027318
 O    -3.273740     7.012719    -1.090156
 H    -2.969581     7.797331    -0.587411
 H     2.658727    -4.681217     2.290383
 O     1.738419    -5.009773     2.267486
 H     1.790773    -5.889553     1.840323
 H    -8.764145    -0.483665    -5.197723
 O    -8.666886    -1.040345    -6.005372
 H    -8.356625    -0.426352    -6.694171
 H     7.665250    -0.062942    -3.734727
 O     8.276530    -0.103924    -2.978943
 H     8.976322     0.543461    -3.176132
 H     4.282139     6.595856     0.224875
 O     4.984999     5.954589     0.033220
 H     4.518897     5.131583    -0.234646
 H    -7.919940     0.360135    -3.337868
 O    -8.808021     0.401069    -3.749289
 H    -9.430046     0.157118    -3.062457
 H     6.211014     3.779501    -3.009000
 O     5.715275     2.994207    -2.710093
 H     6.282898     2.541756    -2.042942
 H    -1.484278    -6.908994    -0.081941
 O    -2.083816    -6.153348    -0.249171
 H    -2.666984    -6.430074    -0.962592
 H    -4.140782    -7.767121     0.735037
 O    -4.383865    -7.531646     1.633450
 H    -4.155455    -6.576028     1.728423
 H    -3.009596    -5.085651     1.007844
 O    -3.733686    -4.973269     1.645001
 H    -3.451923    -4.277142     2.272718
 H     5.014107    -6.428137     4.789739
 O     4.275532    -6.158612     4.240478
 H     4.590711    -6.229651     3.323824
 H    -9.615994    -5.952018    -4.231176
 O    -9.604317    -5.469102    -5.089428
 H    -10.240207    -5.914831    -5.649423
 H     6.121413    -5.812731     1.221361
 O     5.586361    -6.410437     1.783424
 H     5.135730    -6.977307     1.146262
 H    -1.570467    -6.805827     2.393953
 O    -1.728347    -7.764722     2.419156
 H    -2.690181    -7.872134     2.388831
 H    -10.074406    -3.763677    -4.764519
 O    -10.194371    -2.843253    -4.475865
 H    -9.936214    -2.277408    -5.216122
 H     0.618309     8.015920    -2.992542
 O     0.960825     8.855257    -3.365168
 H     1.855851     8.971229    -2.983193
 H    -9.209550    -7.747085    -2.885933
 O    -9.785686    -6.981240    -2.880403
 H    -9.679037    -6.572138    -2.002568
 H     1.948596     0.480528     4.672226
 O     2.020064    -0.384186     5.119648
 H     2.236276    -1.049504     4.432450
 H    -6.414345     0.683031    -7.682571
 O    -7.374491     0.781743    -7.574278
 H    -7.521273     1.678274    -7.270225
 H     6.306529     3.440518    -6.555950
 O     5.591985     3.789138    -5.968189
 H     4.994953     4.355588    -6.526601
 H    -5.231202     10.336538     0.842341
 O    -4.721238     10.370667     0.021961
 H    -5.300539     9.913197    -0.618937
 H    -0.731955    -0.971069    -5.761554
 O    -0.868757    -0.294678    -6.460112
 H    -0.075879     0.269515    -6.373452
 H     4.849047    -0.412972    -6.923245
 O     4.900512    -1.354014    -6.698918
 H     5.795124    -1.497098    -6.331463
 H     2.405315    -8.829265    -2.766089
 O     3.362874    -8.774685    -2.738680
 H     3.616572    -8.173081    -3.454266
 H    -4.103902    -0.181931    -7.939352
 O    -4.608495     0.571674    -7.597091
 H    -3.926070     1.192744    -7.254040
 H     1.209157     3.523682     6.836621
 O     1.940820     2.911534     7.047694
 H     2.764911     3.424731     6.957054
 H    -11.416553    -2.471529    -0.266356
 O    -11.002714    -1.858898     0.341910
 H    -10.252883    -1.466476    -0.139229
 H    -7.593648     1.913881     7.525840
 O    -8.051618     2.763667     7.453733
 H    -8.184619     3.080355     8.346647
 H     6.034173    -9.136545    -1.214383
 O     6.136586    -9.232956    -2.166187
 H     5.255184    -9.435735    -2.503826
 H     6.663438     5.126149    -0.464945
 O     7.299082     4.459055    -0.743798
 H     7.462786     3.903500     0.045097
 H    -5.579962    -2.923008     5.689938
 O    -5.596366    -2.175423     6.327527
 H    -4.989095    -2.456042     7.033947
 H     2.423854     1.236813     7.608707
 O     2.879949     0.388740     7.511646
 H     2.572741     0.028899     6.652971
 H    -2.946442    -2.993766     6.959474
 O    -3.454973    -3.140049     7.786268
 H    -2.843992    -2.838664     8.474292
 H     5.617158     1.761303     6.887497
 O     5.322353     0.899061     6.588977
 H     4.426157     0.753299     6.958219
 H     1.781490    -4.503623     4.100266
 O     2.246104    -4.469396     4.948909
 H     2.935872    -5.151130     4.864627
 H     10.386088    -2.861441    -1.589484
 O     10.862492    -2.900703    -0.715920
 H     11.796769    -2.881262    -0.916048
 H     4.036528     8.269605    -2.538170
 O     3.357038     8.846141    -2.166852
 H     3.157197     8.477268    -1.287037
 H    -8.305806    -6.354221     0.082738
 O    -8.932165    -5.907205    -0.509433
 H    -8.869562    -4.965691    -0.214877
 H    -0.545446     9.747950    -2.982346
 O    -1.485564     9.923914    -2.787734
 H    -1.571711     10.020430    -1.836812
 H     4.228454     4.022079    -3.525129
 O     3.688792     4.818730    -3.535605
 H     4.259549     5.577862    -3.293916
 H     5.280233     6.536882    -1.632754
 O     5.233423     6.772766    -2.579239
 H     6.017326     6.409233    -3.013599
 H    -0.483096     5.027654     6.259006
 O     0.238670     4.548742     5.827703
 H     0.946861     5.186992     5.570360
 H     3.127626     5.372539     5.409963
 O     2.380623     5.835757     5.002548
 H     2.343850     5.528338     4.082894
 H    -7.073669     9.084129    -0.053147
 O    -6.766857     8.877340    -0.945756
 H    -6.550115     7.928379    -0.935508
 H    -1.502511    -5.109194     3.476675
 O    -1.034339    -5.004969     2.617016
 H    -0.122195    -5.286261     2.727290
 H     4.020176    -2.376057     6.330232
 O     4.039380    -2.506477     5.357892
 H     3.319687    -3.137933     5.153651
 H     6.904001    -6.367432     3.228766
 O     7.267542    -6.029092     4.056696
 H     6.803704    -5.185965     4.217965
 H     8.827793    -5.082241     4.045188
 O     9.474873    -4.359483     3.941054
 H     9.205780    -3.669207     4.559552
 H     3.316790     8.078870    -7.723301
 O     3.294425     7.507780    -6.957371
 H     2.418863     7.662786    -6.525963
 H    -0.834324    -1.513804     8.114742
 O    -1.067470    -2.162813     8.793347
 H    -0.366979    -2.820726     8.767442
 H     8.444716     4.390998    -1.914042
 O     9.143141     4.418886    -2.617350
 H     9.864498     4.916315    -2.232428
 H     6.478104     4.703317    -4.792118
 O     6.838355     5.083758    -3.952436
 H     7.798881     4.977409    -3.961461
 H     10.903825     2.197082    -3.692885
 O     10.099309     2.006496    -3.200926
 H     9.682080     2.890683    -3.048084
 H     2.894817    -2.676616     7.950917
 O     3.734998    -2.179113     7.984409
 H     3.470501    -1.251249     8.078210
 H    -2.291158    -1.737101    -8.820374
 O    -2.713045    -1.417258    -8.023918
 H    -2.012816    -0.986643    -7.487097
 H     5.110848     5.259726     1.837486
 O     4.879392     4.689930     2.582015
 H     3.908664     4.728933     2.660527
 H    -3.776238    -6.145607    -4.997869
 O    -2.959501    -5.643988    -5.049061
 H    -3.165715    -4.851382    -5.569498
 H    -6.617459     6.137668     4.991423
 O    -6.162927     6.961672     4.736291
 H    -6.010724     6.899209     3.767223
 H    -7.568294     4.092741     6.140729
 O    -7.283795     4.537916     5.332656
 H    -7.036258     3.821255     4.726122
 H    -7.207022     9.533904     2.589081
 O    -6.939438     9.941828     1.740108
 H    -7.393809     10.784082     1.700166
 H    -6.139760    -6.904355     1.470532
 O    -6.734874    -6.255139     1.064223
 H    -6.176128    -5.805259     0.394772
 H    -4.045452    -4.837890     7.494950
 O    -4.283261    -5.668143     7.044373
 H    -3.486398    -5.941646     6.575363
 H     9.534485     0.675366    -0.277686
 O     9.602540     1.634482    -0.436041
 H     9.930542     1.721105    -1.337353
 H    -8.128546    -4.168728     3.054835
 O    -7.207027    -4.446952     3.070887
 H    -7.073377    -5.072725     2.330331
 H     0.838405    -2.492660     6.928346
 O     1.318948    -3.248980     7.282097
 H     1.539353    -3.806343     6.519337
 H    -3.371723    -2.684102    -6.904052
 O    -3.807380    -3.319147    -6.316733
 H    -4.751983    -3.170958    -6.414737
 H    -8.688155     8.405489     3.941407
 O    -7.891896     8.922502     4.072257
 H    -7.231555     8.308268     4.456939
 H     8.059625    -2.321709    -5.079760
 O     7.157102    -1.983748    -5.111683
 H     6.655330    -2.604766    -4.540970
 H    -5.123553    -4.983938     5.626889
 O    -5.143848    -4.381904     4.857370
 H    -5.899255    -4.606496     4.295183
 N     7.678481     2.226621    -6.979770
 H     7.492433     1.646363    -7.791357
 H     7.654819     1.629623    -6.155431
 H     8.618578     2.593926    -7.078263
