604
grain_mol151 // -1288.983468145572 // -19.6658808046 // -285.865723610172 // -1022.78362534 // -0.0178230082 // -0.583098297593 // -0.004142008107
 H    -1.722968    -0.262562     2.482764
 O    -0.748810    -0.172291     2.562074
 H    -0.416694    -1.045124     2.879160
 H    -0.242749    -1.903997    -2.871655
 O    -0.313325    -1.934689    -1.905045
 H    -1.264761    -1.905404    -1.709320
 H    -2.805805     1.585298     0.878979
 O    -2.668677     0.957806     0.149269
 H    -1.903303     1.295709    -0.349951
 H    -3.808258     1.658698    -2.990308
 O    -3.317695     2.043224    -3.754379
 H    -2.423986     2.230114    -3.448626
 H    -0.023168    -0.676694    -0.798133
 O     0.057181     0.055053    -0.156161
 H    -0.351677    -0.264160     0.659124
 H     1.109996    -1.865709    -4.800617
 O     0.185818    -2.108018    -4.625014
 H     0.153928    -3.075635    -4.667453
 H    -5.036884     2.039580    -1.242390
 O    -4.618448     1.241925    -1.621361
 H    -3.926299     1.002134    -0.960273
 H    -3.707312     3.062833     2.537283
 O    -2.947053     2.492815     2.310099
 H    -2.198287     2.881439     2.798592
 H     2.575902     0.399389    -2.930619
 O     2.013251    -0.275409    -2.498796
 H     1.091862    -0.022109    -2.700444
 H    -1.114448     0.228915    -3.585025
 O    -0.340060     0.756867    -3.299398
 H    -0.625230     1.331889    -2.570150
 H     2.751600    -0.466467     0.571308
 O     2.706312    -1.212582    -0.061673
 H     2.416970    -0.841262    -0.916895
 H    -2.769653    -0.695699    -0.585634
 O    -2.877352    -1.159334    -1.426795
 H    -3.645544    -1.754673    -1.354382
 H     2.781555     1.384665    -0.783569
 O     1.931409     1.844022    -0.664349
 H     1.258652     1.151372    -0.492977
 H     0.410193     3.188234    -3.202475
 O     1.338703     3.060360    -2.967686
 H     1.371237     2.594764    -2.112112
 H     0.420394    -4.024164    -0.573293
 O     0.231854    -4.720066    -1.242816
 H    -0.521346    -5.224052    -0.858044
 H    -6.317764     1.666671     3.045413
 O    -6.386905     1.856136     4.017503
 H    -7.103572     1.281375     4.351139
 H     1.417624    -3.705418     1.281784
 O     0.964187    -3.081762     0.685564
 H     1.601234    -2.380426     0.439893
 H    -3.172675     4.989337    -0.944381
 O    -2.941927     4.200273    -0.419130
 H    -3.805314     3.777875    -0.227638
 H    -5.370923    -1.675757     1.685974
 O    -5.138878    -1.019721     0.994461
 H    -5.218582    -1.479955     0.153630
 H    -0.092917    -3.292224     3.025726
 O     0.165737    -2.466058     3.468218
 H     1.101883    -2.307263     3.263787
 H     5.220055     1.309203    -1.148291
 O     4.469352     0.729693    -0.955057
 H     4.724307     0.326267    -0.095036
 H     0.628222     2.377544     1.079807
 O     0.644077     2.032959     1.981970
 H     0.080616     1.238997     2.028190
 H     4.517275    -0.259248    -2.323024
 O     4.747430    -0.727443    -3.157683
 H     5.187683    -0.050227    -3.712543
 H     2.887794     3.397145    -0.962705
 O     3.739988     3.852089    -0.938938
 H     4.240759     3.595253    -1.736686
 H    -5.728535    -1.899101    -1.901273
 O    -5.156157    -2.567343    -1.465676
 H    -5.027033    -3.273804    -2.121909
 H    -4.606318    -4.421570     1.222627
 O    -5.332104    -3.832730     0.942994
 H    -5.119461    -3.530205     0.049936
 H     2.619900     2.285518    -3.638138
 O     3.334176     1.649270    -3.848208
 H     3.406515     1.622498    -4.807873
 H    -5.335697     3.449735     3.777917
 O    -4.799684     4.072011     3.275236
 H    -4.309192     4.635973     3.911319
 H     0.621350     1.023441    -4.711857
 O     1.118138     0.943433    -5.552131
 H     1.768632     0.227432    -5.397638
 H     0.718879     5.804729    -2.234855
 O     1.530803     5.524751    -1.778800
 H     2.110326     5.116093    -2.451767
 H    -2.523769    -3.686927    -1.807322
 O    -2.655701    -3.953337    -0.881727
 H    -3.382302    -4.591814    -0.856003
 H     1.806058     5.264659    -4.490414
 O     0.926924     5.302593    -4.905674
 H     0.957477     4.610301    -5.593099
 H     7.688528     2.269836    -0.885413
 O     6.923984     1.863441    -1.333228
 H     7.324947     1.206268    -1.937546
 H     4.372650     2.995403     0.371309
 O     4.728984     2.652607     1.216001
 H     4.610982     3.391645     1.848480
 H     1.305057    -3.144717    -2.198213
 O     2.151990    -2.935980    -2.618985
 H     2.178730    -1.956356    -2.643050
 H     0.947168     4.620213    -0.550636
 O     0.519880     4.116505     0.178466
 H    -0.194478     4.680304     0.526597
 H    -5.745806     0.570928     1.258020
 O    -6.281425     1.365891     1.452961
 H    -7.197934     1.073854     1.215073
 H    -2.059828    -2.837691     0.246077
 O    -1.618222    -2.242291     0.881570
 H    -0.690095    -2.529216     0.876530
 H    -3.598431    -0.677238     4.275260
 O    -3.581548    -0.817338     5.249525
 H    -4.298384    -1.442960     5.501216
 H    -5.823770    -3.331207     3.203376
 O    -5.433338    -2.446538     3.297494
 H    -4.468462    -2.613677     3.293917
 H    -2.783736    -0.614626    -2.996129
 O    -2.518590    -0.656081    -3.942159
 H    -2.301873    -1.611282    -4.026839
 H    -3.181209    -3.634098    -3.744263
 O    -2.345922    -3.202014    -3.498819
 H    -1.616495    -3.792169    -3.772919
 H     3.331630    -0.984496    -4.274110
 O     2.787218    -1.133183    -5.070837
 H     3.428559    -1.254430    -5.789500
 H     4.565177     2.622454    -6.594770
 O     4.086831     1.768454    -6.615189
 H     3.235988     1.954304    -7.020941
 H    -4.181048     0.579342     5.798267
 O    -4.713302     1.370941     6.067340
 H    -5.291171     1.565281     5.301733
 H    -3.886142    -0.425856     2.007508
 O    -3.366738    -0.085992     2.756114
 H    -3.345160     0.889854     2.683301
 H    -5.777251     0.172222    -2.231885
 O    -6.278126    -0.520611    -2.710160
 H    -5.846308    -0.581826    -3.584084
 H     2.167601    -3.719436    -4.165017
 O     2.138738    -4.173532    -5.029939
 H     1.790662    -5.060762    -4.844134
 H     4.735058    -3.334311    -0.687185
 O     4.967921    -2.572529    -0.111848
 H     4.167339    -1.996627    -0.107758
 H    -0.383846     2.948135    -0.860795
 O    -1.107789     2.531024    -1.357491
 H    -1.862034     3.141190    -1.219278
 H     1.539064     4.418318     1.613003
 O     1.986688     4.572071     2.465004
 H     1.845035     3.767982     2.988804
 H     3.675166     1.325811     1.657183
 O     2.942646     0.697911     1.810710
 H     2.134899     1.231075     1.945082
 H     3.430261    -3.798061    -2.124624
 O     4.169214    -4.382521    -1.824782
 H     4.845577    -4.333649    -2.518326
 H     5.241553    -3.477265    -4.572388
 O     5.652178    -3.147484    -3.735849
 H     5.195857    -2.318621    -3.484933
 H    -1.335555     4.894059     2.179677
 O    -1.546828     5.443291     1.388876
 H    -2.153485     4.915697     0.808401
 H    -5.822865     2.751264     0.525276
 O    -5.405586     3.287421    -0.175739
 H    -5.908521     4.116365    -0.316624
 H     5.304413    -3.633185     2.872599
 O     4.541125    -3.494870     2.305583
 H     4.853460    -3.176868     1.428748
 H     5.961577    -1.004141     1.321176
 O     5.508033    -0.138207     1.321919
 H     6.254283     0.490160     1.375609
 H     2.064190    -6.597801    -3.128235
 O     1.895224    -6.814931    -4.070449
 H     2.772365    -6.830291    -4.480749
 H    -6.915685    -4.133071     0.748134
 O    -7.882262    -4.185838     0.547747
 H    -8.351553    -4.032916     1.396760
 H     3.432187    -2.317686     2.767979
 O     2.706996    -1.695153     2.964548
 H     2.877693    -0.871348     2.473257
 H    -2.022214     2.433314     5.137101
 O    -2.777617     3.029474     5.293394
 H    -3.485235     2.476400     5.675201
 H    -0.811662     0.739707     4.007179
 O    -0.723507     1.288006     4.818826
 H     0.084969     1.795546     4.689824
 H     0.088568     3.476537    -6.880598
 O     1.053876     3.336943    -6.762773
 H     1.124072     2.483237    -6.294716
 H     7.370578    -2.518763     4.660539
 O     6.644763    -3.010477     4.207399
 H     5.818910    -2.713508     4.658546
 H     7.937753     1.904285     1.405005
 O     7.912332     0.969083     1.682475
 H     8.431362     0.453216     1.037744
 H    -4.006769    -0.751236    -4.659035
 O    -4.931786    -0.845528    -4.993832
 H    -4.944521    -0.460342    -5.891291
 H     6.564344    -1.040332    -2.200557
 O     7.004231    -1.483520    -1.469972
 H     6.293684    -1.810023    -0.885888
 H     4.804298    -0.646733     4.417099
 O     5.168396     0.127030     3.955197
 H     5.123621    -0.029130     2.987999
 H    -0.169027     3.205029     2.928260
 O    -0.836478     3.815027     3.301179
 H    -0.542547     4.082865     4.193331
 H     8.348851    -0.743299    -0.748483
 O     9.112676    -0.325270    -0.292841
 H     9.851598    -0.943116    -0.378796
 H     9.882970    -3.272199     2.076412
 O     9.573553    -3.092221     1.162102
 H     10.325965    -2.872732     0.601853
 H    -2.175293    -2.850422     3.821542
 O    -2.793287    -2.967922     3.090196
 H    -2.360900    -2.601147     2.278316
 H    -2.169465     0.658239    -6.261247
 O    -2.843390     1.365693    -6.290701
 H    -3.105218     1.521406    -5.359323
 H    -1.433020     3.766480    -5.454675
 O    -1.555541     3.736380    -6.432164
 H    -2.096469     2.940741    -6.583831
 H    -4.154208    -6.557431    -1.221548
 O    -4.671563    -5.845841    -0.815596
 H    -5.451139    -5.713333    -1.396837
 H     3.081898    -5.644216    -1.574660
 O     2.313302    -6.244427    -1.495161
 H     1.511102    -5.665754    -1.373570
 H     3.585568    -4.021943    -5.701603
 O     4.542873    -3.950635    -5.969494
 H     4.608322    -3.200517    -6.566627
 H     7.303309     3.850280     2.082274
 O     7.241027     3.498817     1.185065
 H     6.333309     3.110726     1.130718
 H     6.913508    -3.484308     0.274818
 O     7.451005    -4.259933     0.042693
 H     8.327568    -4.047058     0.419411
 H    -7.159373    -4.911784    -2.505144
 O    -6.871406    -5.827656    -2.294627
 H    -7.472322    -6.146075    -1.593980
 H    -4.742990     6.376710     5.008507
 O    -3.836205     6.099168     4.773746
 H    -3.341232     5.916939     5.586616
 H     7.091186     3.895658     4.851850
 O     7.113052     3.505201     3.968347
 H     7.424855     2.588682     4.093760
 H    -5.779801     0.389235     6.957067
 O    -6.512711    -0.203956     7.243127
 H    -6.179892    -1.104950     7.096818
 H    -0.120209    -4.897203    -2.963433
 O    -0.295171    -4.800594    -3.917280
 H    -0.843715    -5.544528    -4.197814
 H     6.743793     0.566852     4.320056
 O     7.699697     0.819823     4.277332
 H     7.913061     0.801574     3.317668
 H     5.260178    -6.313776    -3.965270
 O     4.577884    -6.527530    -4.637698
 H     4.658975    -5.845057    -5.312210
 H    -5.744160    -2.242450    -5.260516
 O    -6.310386    -3.042722    -5.380269
 H    -7.189192    -2.673835    -5.655523
 H    -7.627460     0.035511     6.035478
 O    -8.211017     0.338764     5.294652
 H    -8.859651     0.923026     5.690891
 H    -5.527908     5.321144     2.362639
 O    -5.824970     6.215974     2.101426
 H    -5.004399     6.750226     2.092333
 H     5.704196     1.967136    -3.998051
 O     5.990242     1.206739    -4.549874
 H     5.490819     1.276062    -5.365969
 H    -6.218139     6.011407     0.453755
 O    -6.231501     5.797062    -0.503724
 H    -5.359149     6.095055    -0.836538
 H     0.252164    -7.461966    -3.228774
 O    -0.437418    -7.637946    -2.578184
 H    -0.016856    -7.966805    -1.774968
 H    -2.360218    -1.871148     5.505048
 O    -1.661959    -2.556043     5.637625
 H    -0.859708    -2.038648     5.839533
 H     7.837885    -4.036555    -1.614530
 O     7.952375    -4.008262    -2.588715
 H     7.149624    -3.575579    -2.927556
 H    -8.581244    -3.498444    -3.305133
 O    -7.666100    -3.362278    -2.968359
 H    -7.136397    -3.130098    -3.746235
 H     9.060529    -2.749042    -2.962360
 O     9.644551    -1.984092    -3.150029
 H     9.092268    -1.188669    -3.044331
 H    -4.722036    -5.284941    -3.633818
 O    -4.746475    -4.322846    -3.495098
 H    -5.292656    -3.956629    -4.201562
 H    -3.863045     3.759823    -3.479428
 O    -3.626943     4.627408    -3.112580
 H    -3.960046     5.310952    -3.695054
 H    -0.512331     4.714313    -3.996549
 O    -1.123150     3.980016    -3.806973
 H    -1.932364     4.369619    -3.418637
 H    -1.621258    -4.311249     5.314588
 O    -1.859348    -5.185567     4.968219
 H    -2.800391    -5.098688     4.735438
 H    -2.897173     8.204971    -3.658025
 O    -3.044520     7.244035    -3.774181
 H    -2.830548     7.029130    -4.708882
 H    -3.394008     7.020907     3.317124
 O    -3.331584     7.230151     2.370060
 H    -2.692417     6.581928     2.011952
 H     4.756910     1.762485     4.192428
 O     4.540413     2.707022     4.034564
 H     5.389008     3.125772     3.796411
 H     8.038746    -1.376268     6.210282
 O     8.489699    -1.537893     5.358552
 H     8.391410    -0.689677     4.882436
 H     6.174632    -1.260935     7.731083
 O     6.843309    -0.690348     7.339422
 H     6.336306     0.035501     6.911629
 H    -2.066873     5.542215    -6.403727
 O    -2.260952     6.470581    -6.202007
 H    -1.419017     6.951072    -6.296198
 H    -8.107859    -0.809826     3.963920
 O    -7.891711    -1.326076     3.174547
 H    -6.966600    -1.615291     3.270312
 H    -8.463089    -0.467192     0.215223
 O    -8.532367     0.162816     0.951553
 H    -8.468036    -0.385643     1.751979
 H     0.929586    -0.605644     5.897439
 O     0.104402    -0.737914     6.420112
 H    -0.448022     0.004527     6.119344
 H    -0.870855     6.929728    -1.591078
 O    -0.806465     6.557054    -2.493682
 H    -1.673882     6.703721    -2.932860
 H     1.143150    -8.033324     0.502535
 O     0.253951    -8.335634     0.262513
 H    -0.190280    -8.435044     1.132498
 H     1.899612     2.684500     5.260318
 O     1.924881     2.412690     4.318317
 H     2.861621     2.498520     4.063700
 H    -7.580966    -6.003134    -5.552508
 O    -6.696537    -5.800528    -5.899235
 H    -6.603981    -4.840855    -5.836503
 H     3.570875    -7.436099     0.981516
 O     2.662610    -7.126486     0.941987
 H     2.555919    -6.789403     0.015388
 H     2.979467     5.900183    -7.372743
 O     3.192704     4.951523    -7.503224
 H     2.394465     4.447903    -7.280469
 H    -0.915021     6.870682     0.577188
 O    -0.657407     7.599362    -0.012489
 H    -1.375920     8.245356     0.049231
 H     4.253254     3.821625     5.244577
 O     4.128412     4.456292     5.990890
 H     5.005267     4.571061     6.366684
 H     7.513244     3.162500     6.813589
 O     6.932869     3.966568     6.746187
 H     7.378077     4.652429     7.242521
 H     4.596900    -7.778883    -1.112773
 O     5.082622    -7.218017    -0.485935
 H     5.481659    -6.540297    -1.055311
 H     7.118579    -5.541541    -2.754314
 O     6.389963    -6.188354    -2.708944
 H     6.784990    -7.076848    -2.649505
 H    -8.791831    -2.772682     3.002134
 O    -9.224091    -3.618470     2.758853
 H    -9.980752    -3.356024     2.207505
 H    -3.186699     8.490596     1.088296
 O    -3.066518     8.859662     0.197273
 H    -3.890825     9.383424     0.030819
 H     8.101822     1.041313     7.340088
 O     8.397209     1.763335     6.774802
 H     8.267026     1.435769     5.868052
 H    -2.626641     4.828019     7.714619
 O    -2.359245     5.070472     6.829257
 H    -2.503718     4.259958     6.255536
 H    -5.846074    -6.820798    -3.367006
 O    -5.168730    -6.967723    -4.052228
 H    -5.629425    -6.703808    -4.877857
 H     6.998694    -2.437388     2.641099
 O     7.102328    -2.162603     1.710864
 H     8.051771    -2.177505     1.521107
 H     1.936654     6.788330    -0.782221
 O     2.145917     7.538588    -0.181748
 H     1.283300     7.818269     0.148920
 H    -3.687387    -7.629436    -2.934384
 O    -3.121250    -7.644864    -2.154161
 H    -2.206395    -7.705449    -2.483214
 H     0.477948     6.738283    -5.578217
 O     0.248653     7.601134    -5.995816
 H     0.228650     8.227381    -5.242804
 H    -8.122965    -2.195881    -1.657582
 O    -8.429045    -1.953503    -0.769845
 H    -8.148602    -2.729722    -0.234440
 H    -3.678284     6.858209    -2.121169
 O    -3.764833     6.665198    -1.178177
 H    -3.510817     7.480431    -0.695329
 H     3.148423    -4.455360     2.276589
 O     2.256641    -4.855348     2.282047
 H     2.368401    -5.737068     1.870595
 H    -8.737982    -1.323104    -5.008896
 O    -8.615469    -1.886954    -5.808106
 H    -8.370483    -1.264942    -6.515723
 H     7.555488     0.401420    -3.928973
 O     8.203581     0.399401    -3.205638
 H     8.833102     1.107963    -3.400641
 H     3.828366     6.869517    -0.039251
 O     4.575130     6.282215    -0.238673
 H     4.169031     5.419292    -0.476790
 H    -7.920955    -0.377386    -3.186290
 O    -8.818576    -0.414543    -3.576879
 H    -9.403592    -0.692575    -2.870724
 H     5.899615     4.145375    -3.265842
 O     5.475969     3.328555    -2.943255
 H     6.090748     2.936777    -2.278431
 H    -0.858781    -7.050025     0.047944
 O    -1.519363    -6.347126    -0.119211
 H    -2.095449    -6.683650    -0.812410
 H    -3.420030    -8.096937     0.945303
 O    -3.659999    -7.862859     1.844909
 H    -3.505966    -6.890445     1.916333
 H    -2.497963    -5.329802     1.140139
 O    -3.213967    -5.261679     1.792462
 H    -2.974086    -4.532675     2.400005
 H     5.690530    -5.960097     4.750352
 O     4.921011    -5.760068     4.214043
 H     5.219757    -5.825673     3.291544
 H    -9.133050    -6.820283    -3.919441
 O    -9.179071    -6.355748    -4.786655
 H    -9.790391    -6.861485    -5.322518
 H     6.664394    -5.333402     1.144751
 O     6.191111    -5.959287     1.730862
 H     5.772215    -6.573034     1.115847
 H    -0.896500    -6.902736     2.522985
 O    -0.977349    -7.870370     2.569642
 H    -1.928146    -8.053659     2.564996
 H    -9.774922    -4.686270    -4.482368
 O    -9.960497    -3.772282    -4.208332
 H    -9.764811    -3.203441    -4.965237
 H    -0.008937     7.930692    -3.192566
 O     0.256950     8.786808    -3.588908
 H     1.148432     8.980827    -3.231395
 H    -8.555665    -8.549748    -2.550846
 O    -9.190068    -7.831427    -2.545887
 H    -9.096252    -7.397185    -1.678718
 H     2.086930     0.683059     4.577561
 O     2.237371    -0.163916     5.039121
 H     2.489061    -0.824398     4.359534
 H    -6.544841    -0.027265    -7.571944
 O    -7.507054    -0.001790    -7.442079
 H    -7.717058     0.886576    -7.151525
 H     6.001072     4.261279    -7.267225
 O     5.418264     4.155754    -6.515280
 H     4.544392     4.563097    -6.803579
 H    -5.788018     9.910895     0.750584
 O    -5.389278     10.014692    -0.133695
 H    -5.957754     9.397715    -0.650074
 H    -0.707214    -1.189833    -5.758615
 O    -0.912869    -0.540733    -6.466079
 H    -0.165638     0.085610    -6.410728
 H     4.785946    -0.160920    -6.953145
 O     4.928151    -1.088842    -6.737287
 H     5.780312    -1.138725    -6.269189
 H     3.108313    -8.714299    -2.693010
 O     4.058874    -8.583624    -2.690001
 H     4.247657    -7.979317    -3.423134
 H    -4.179856    -0.713019    -7.868597
 O    -4.734396     0.005439    -7.528006
 H    -4.095515     0.685293    -7.213890
 H     1.158840     3.702566     6.701671
 O     1.941477     3.154152     6.905689
 H     2.719837     3.728976     6.786231
 H    -11.112111    -3.410713     0.021666
 O    -10.734191    -2.755241     0.608253
 H    -10.028934    -2.314860     0.101943
 H    -7.470436     1.420727     7.636250
 O    -7.997249     2.228980     7.558026
 H    -8.133657     2.555394     8.446924
 H     6.784599    -8.703413    -1.225089
 O     6.872432    -8.810186    -2.177248
 H     6.002571    -9.089297    -2.489405
 H     6.302703     5.577018    -0.759603
 O     6.981598     4.955651    -1.042543
 H     7.207021     4.431523    -0.246934
 H    -5.123789    -3.279735     5.841802
 O    -5.184640    -2.522789     6.465358
 H    -4.541357    -2.740030     7.162128
 H     2.568024     1.534739     7.486877
 O     3.087788     0.723541     7.394405
 H     2.789944     0.322808     6.550710
 H    -2.464737    -3.116962     7.048063
 O    -2.941009    -3.286000     7.889565
 H    -2.340583    -2.923024     8.556812
 H     5.692595     2.293285     6.678501
 O     5.460133     1.404731     6.402954
 H     4.586948     1.196510     6.796827
 H     2.301074    -4.309721     4.103681
 O     2.781127    -4.221301     4.939700
 H     3.520225    -4.848649     4.851723
 H     10.617711    -2.115098    -1.823876
 O     11.115068    -2.097394    -0.961519
 H     12.040381    -2.011041    -1.184308
 H     3.387234     8.462041    -2.826844
 O     2.673603     8.990787    -2.449034
 H     2.523681     8.625222    -1.557945
 H    -7.697397    -7.029149     0.368139
 O    -8.370223    -6.644949    -0.217096
 H    -8.375615    -5.695569     0.058316
 H    -1.305730     9.565558    -3.187018
 O    -2.251994     9.672376    -2.972377
 H    -2.322454     9.779587    -2.021188
 H     3.893439     4.222061    -3.732557
 O     3.293229     4.973517    -3.751447
 H     3.805490     5.780657    -3.536688
 H     4.783445     6.851629    -1.916398
 O     4.698802     7.061597    -2.866967
 H     5.500666     6.756505    -3.310574
 H    -0.659816     5.055415     6.137692
 O     0.088299     4.626915     5.697817
 H     0.736459     5.314310     5.411474
 H     2.892685     5.666578     5.194258
 O     2.102884     6.061691     4.796073
 H     2.068905     5.732833     3.883851
 H    -7.573065     8.372926     0.071564
 O    -7.405925     8.254765    -0.885919
 H    -7.134866     7.318569    -0.952385
 H    -0.938375    -5.183808     3.571482
 O    -0.499150    -5.061024     2.698975
 H     0.434492    -5.267795     2.792704
 H     4.415214    -1.967130     6.237908
 O     4.422748    -2.115865     5.267951
 H     3.750487    -2.805812     5.093333
 H     7.533789    -5.783253     3.142861
 O     7.888685    -5.399924     3.954764
 H     7.363080    -4.593023     4.111782
 H     9.368400    -4.334249     3.887619
 O     9.953574    -3.565038     3.753903
 H     9.645200    -2.885637     4.366089
 H     2.574249     8.093361    -7.994382
 O     2.613208     7.553152    -7.206502
 H     1.734208     7.646676    -6.765143
 H    -0.450512    -1.452116     8.123706
 O    -0.615965    -2.103451     8.819724
 H     0.133623    -2.704582     8.789203
 H     8.101715     4.955173    -2.237227
 O     8.774516     5.025874    -2.962807
 H     9.466292     5.583085    -2.606015
 H     6.105095     5.047432    -5.137422
 O     6.403817     5.458954    -4.305015
 H     7.359161     5.360460    -4.221548
 H     10.524342     2.785331    -4.169189
 O     9.798232     2.627748    -3.567711
 H     9.362686     3.492975    -3.398026
 H     3.354470    -2.321671     7.890870
 O     4.153280    -1.759102     7.894172
 H     3.818417    -0.853199     7.977372
 H    -2.270897    -2.138511    -8.764261
 O    -2.698133    -1.837101    -7.963462
 H    -2.022134    -1.341635    -7.452414
 H     4.796400     5.636873     1.578116
 O     4.628207     5.064608     2.337317
 H     3.659445     5.029038     2.439787
 H    -3.314910    -6.570640    -4.824131
 O    -2.541853    -6.007406    -4.904659
 H    -2.822146    -5.244489    -5.434775
 H    -6.888638     5.653611     4.999519
 O    -6.498804     6.502140     4.720687
 H    -6.374758     6.440175     3.747960
 H    -7.650251     3.564429     6.209531
 O    -7.420338     4.013416     5.386495
 H    -7.130551     3.306864     4.787305
 H    -7.718425     8.998302     2.599629
 O    -7.367485     9.306707     1.741923
 H    -7.926393     10.067869     1.462379
 H    -5.463523    -7.378805     1.713034
 O    -6.117100    -6.786978     1.308974
 H    -5.611014    -6.308343     0.617990
 H    -3.402318    -5.030275     7.644704
 O    -3.583852    -5.885823     7.215745
 H    -2.778713    -6.105470     6.732800
 H     9.519077     1.370905    -0.557724
 O     9.506932     2.328641    -0.737929
 H     9.807769     2.420077    -1.648087
 H    -7.625504    -4.775365     3.293617
 O    -6.684798    -4.980211     3.292358
 H    -6.519225    -5.608654     2.560630
 H     1.266736    -2.321023     6.915652
 O     1.814070    -3.029474     7.271520
 H     2.059858    -3.583703     6.514300
 H    -3.228969    -3.128276    -6.804532
 O    -3.599453    -3.783034    -6.194570
 H    -4.554811    -3.711929    -6.272549
 H    -9.153887     7.734542     3.948608
 O    -8.402172     8.313455     4.081785
 H    -7.688029     7.754815     4.450449
 H     8.162286    -1.638315    -5.186434
 O     7.223369    -1.446059    -5.205637
 H     6.800103    -2.118739    -4.639357
 H    -4.507745    -5.299210     5.806460
 O    -4.592590    -4.717054     5.026147
 H    -5.340940    -5.011354     4.487173
 N    -8.392476     11.371621     0.128703
 H    -7.452777     11.518682    -0.235580
 H    -8.829906     12.277593     0.260072
 H    -8.910686     10.877523    -0.591882
