604
grain_mol3 // -1574.407440578604 // -39.9933036456 // -591.615081394204 // -1022.78566283 // -0.0350337533 // -0.583368342254 // -0.009448121824
 H    -1.754750    -0.236630     2.471728
 O    -0.776526    -0.193512     2.539610
 H    -0.478955    -1.096726     2.799756
 H    -0.438801    -1.634774    -2.993646
 O    -0.494695    -1.714730    -2.028920
 H    -1.440530    -1.657481    -1.813861
 H    -2.780898     1.745905     0.994295
 O    -2.684654     1.154984     0.228687
 H    -1.913014     1.485680    -0.265773
 H    -3.843737     2.080621    -2.845246
 O    -3.349520     2.486443    -3.595590
 H    -2.443242     2.616360    -3.297440
 H    -0.129910    -0.536418    -0.859612
 O    -0.008397     0.154173    -0.179355
 H    -0.415262    -0.195042     0.624384
 H     0.881670    -1.546419    -4.942411
 O    -0.049474    -1.757647    -4.763540
 H    -0.124805    -2.719157    -4.858487
 H    -5.024821     2.415431    -1.055445
 O    -4.649049     1.622865    -1.485668
 H    -3.957014     1.316000    -0.852842
 H    -3.588171     3.165095     2.748421
 O    -2.857959     2.576238     2.476980
 H    -2.084297     2.903646     2.971535
 H     2.477963     0.544200    -2.978189
 O     1.892928    -0.128433    -2.573812
 H     0.980466     0.175109    -2.743818
 H    -1.226830     0.571033    -3.570065
 O    -0.425369     1.048589    -3.270686
 H    -0.672329     1.592426    -2.504628
 H     2.673733    -0.525450     0.466158
 O     2.584773    -1.231161    -0.206683
 H     2.297878    -0.800193    -1.034068
 H    -2.870716    -0.449699    -0.594895
 O    -3.014245    -0.857967    -1.458955
 H    -3.805790    -1.423900    -1.404967
 H     2.762975     1.396078    -0.783364
 O     1.936289     1.884615    -0.621891
 H     1.236379     1.212968    -0.477554
 H     0.434305     3.434757    -3.052318
 O     1.360005     3.254263    -2.842230
 H     1.386061     2.739182    -2.015309
 H     0.168965    -3.908512    -0.827472
 O    -0.063643    -4.554330    -1.533136
 H    -0.830221    -5.047581    -1.161787
 H    -6.249526     1.856872     3.228782
 O    -6.294574     1.995981     4.211074
 H    -7.029288     1.433505     4.526129
 H     1.210153    -3.745057     1.011589
 O     0.770466    -3.060929     0.469259
 H     1.436098    -2.378773     0.249322
 H    -3.026211     5.259321    -0.630165
 O    -2.822192     4.433705    -0.151993
 H    -3.700023     4.038417     0.030965
 H    -5.475076    -1.441690     1.667183
 O    -5.226218    -0.757649     1.009484
 H    -5.339358    -1.165754     0.145782
 H    -0.251832    -3.359600     2.807323
 O     0.053507    -2.576340     3.297253
 H     0.988120    -2.433437     3.072406
 H     5.189588     1.235273    -1.198428
 O     4.416677     0.679791    -1.023370
 H     4.667772     0.216159    -0.193029
 H     0.687710     2.374118     1.172723
 O     0.701424     1.980463     2.054640
 H     0.105728     1.209190     2.066721
 H     4.397695    -0.232445    -2.444959
 O     4.592688    -0.661665    -3.308950
 H     5.053566     0.025933    -3.833263
 H     2.955899     3.408568    -0.852327
 O     3.827491     3.824557    -0.819414
 H     4.303153     3.591547    -1.639605
 H    -5.902272    -1.445822    -1.919363
 O    -5.353526    -2.161855    -1.532059
 H    -5.266171    -2.835080    -2.228909
 H    -4.841241    -4.187251     1.037324
 O    -5.544816    -3.552426     0.805169
 H    -5.333759    -3.209791    -0.073698
 H     2.593950     2.463506    -3.580048
 O     3.276053     1.810168    -3.838777
 H     3.330408     1.833612    -4.799711
 H    -5.177080     3.549972     4.039183
 O    -4.624458     4.178836     3.563104
 H    -4.096255     4.680084     4.220564
 H     0.523580     1.351772    -4.683981
 O     1.002498     1.298038    -5.536588
 H     1.622746     0.546577    -5.434748
 H     0.875122     5.976805    -1.946468
 O     1.681233     5.636523    -1.522013
 H     2.230670     5.241545    -2.227698
 H    -2.778733    -3.374305    -1.986400
 O    -2.909151    -3.684166    -1.074247
 H    -3.660757    -4.293453    -1.070804
 H     1.899354     5.518118    -4.249009
 O     1.015917     5.617588    -4.644379
 H     1.004092     4.964744    -5.369948
 H     7.702311     2.071506    -0.929891
 O     6.913074     1.724967    -1.384982
 H     7.273960     1.085632    -2.032233
 H     4.443493     2.868318     0.428408
 O     4.798492     2.463925     1.246022
 H     4.723654     3.170598     1.920510
 H     1.064108    -2.978828    -2.418647
 O     1.911072    -2.782288    -2.845224
 H     1.980799    -1.805187    -2.813919
 H     1.078926     4.690101    -0.335978
 O     0.641885     4.165717     0.372743
 H    -0.040788     4.739525     0.764283
 H    -5.756648     0.839997     1.372989
 O    -6.253310     1.645088     1.622696
 H    -7.185631     1.406523     1.385866
 H    -2.243100    -2.662869     0.102679
 O    -1.764696    -2.124520     0.761955
 H    -0.850230    -2.451362     0.721462
 H    -3.616703    -0.669087     4.274062
 O    -3.590474    -0.863343     5.238812
 H    -4.329285    -1.471686     5.468544
 H    -5.975594    -3.158731     3.098508
 O    -5.545054    -2.298482     3.234898
 H    -4.588662    -2.506778     3.202874
 H    -2.921892    -0.230942    -2.997140
 O    -2.674795    -0.230394    -3.948880
 H    -2.502030    -1.187864    -4.090652
 H    -3.465432    -3.183260    -3.904715
 O    -2.607999    -2.802207    -3.651530
 H    -1.909899    -3.407419    -3.971257
 H     3.148539    -0.793957    -4.410430
 O     2.585070    -0.872624    -5.203908
 H     3.208388    -0.981666    -5.940130
 H     4.502567     2.881762    -6.549816
 O     3.986637     2.051827    -6.608828
 H     3.138100     2.296998    -6.986972
 H    -4.117812     0.523442     5.875380
 O    -4.609436     1.321676     6.198159
 H    -5.190894     1.583294     5.455762
 H    -3.930915    -0.277980     2.029474
 O    -3.384964    -0.003453     2.786052
 H    -3.320823     0.972839     2.766764
 H    -5.864103     0.640885    -2.133138
 O    -6.403451    -0.001190    -2.639425
 H    -5.989325    -0.031848    -3.523528
 H     1.866329    -3.477315    -4.431778
 O     1.802462    -3.879875    -5.320073
 H     1.420048    -4.761002    -5.176667
 H     4.506353    -3.402093    -0.986417
 O     4.784074    -2.682711    -0.377618
 H     4.008703    -2.076112    -0.323549
 H    -0.330186     3.097467    -0.713017
 O    -1.080507     2.741034    -1.217561
 H    -1.804159     3.374924    -1.031965
 H     1.697306     4.340635     1.801814
 O     2.164641     4.426749     2.652808
 H     1.996996     3.600720     3.133036
 H     3.694220     1.160927     1.632224
 O     2.936781     0.558766     1.765730
 H     2.156274     1.118253     1.944505
 H     3.158534    -3.726009    -2.423316
 O     3.875860    -4.357759    -2.171329
 H     4.541817    -4.299780    -2.873867
 H     4.940554    -3.346257    -4.883968
 O     5.380557    -3.081447    -4.039346
 H     4.964314    -2.250363    -3.732563
 H    -1.143797     4.908158     2.449064
 O    -1.346392     5.511583     1.696320
 H    -1.982790     5.043171     1.096804
 H    -5.749550     3.058327     0.764186
 O    -5.319417     3.616081     0.088165
 H    -5.788664     4.471258     0.001068
 H     5.117969    -3.935745     2.537623
 O     4.353954    -3.709100     2.002227
 H     4.666162    -3.369246     1.134837
 H     5.866495    -1.243891     1.123462
 O     5.453715    -0.359704     1.181350
 H     6.228614     0.230492     1.254974
 H     1.651214    -6.401284    -3.556749
 O     1.457465    -6.556828    -4.506892
 H     2.326681    -6.588648    -4.932660
 H    -7.142890    -3.772417     0.623731
 O    -8.114220    -3.771448     0.439541
 H    -8.561797    -3.646947     1.304614
 H     3.303986    -2.527890     2.545007
 O     2.612405    -1.882630     2.790004
 H     2.813540    -1.043052     2.339287
 H    -1.889422     2.316989     5.276976
 O    -2.615071     2.935392     5.481626
 H    -3.339702     2.391921     5.845170
 H    -0.774845     0.638196     4.032288
 O    -0.649128     1.136451     4.870986
 H     0.179554     1.613642     4.754848
 H     0.064508     3.944456    -6.701691
 O     1.024526     3.756609    -6.610293
 H     1.064372     2.875495    -6.192087
 H     7.286008    -3.020372     4.320803
 O     6.520153    -3.464765     3.879853
 H     5.731453    -3.159071     4.416594
 H     7.973558     1.566153     1.331127
 O     7.911985     0.619062     1.557758
 H     8.395102     0.117762     0.874651
 H    -4.177363    -0.220264    -4.641075
 O    -5.111207    -0.254982    -4.962703
 H    -5.121737     0.180597    -5.836881
 H     6.409630    -1.107516    -2.406009
 O     6.842389    -1.608001    -1.708998
 H     6.127671    -1.938430    -1.131648
 H     4.785691    -1.015190     4.256131
 O     5.170055    -0.229012     3.831315
 H     5.103032    -0.329259     2.857939
 H    -0.041895     3.130589     3.078938
 O    -0.674715     3.747252     3.498951
 H    -0.353245     3.950345     4.398586
 H     8.229344    -0.970091    -0.973497
 O     9.018918    -0.611957    -0.510344
 H     9.727941    -1.255416    -0.645376
 H     9.709050    -3.699117     1.673149
 O     9.384155    -3.471527     0.775486
 H     10.132098    -3.253803     0.208319
 H    -2.299154    -2.873696     3.672200
 O    -2.934860    -2.920332     2.948233
 H    -2.499435    -2.529649     2.148951
 H    -2.306121     1.196374    -6.197235
 O    -2.948325     1.932989    -6.174378
 H    -3.187414     2.047194    -5.231002
 H    -1.418877     4.219175    -5.233081
 O    -1.558427     4.249371    -6.208192
 H    -2.137105     3.488182    -6.393557
 H    -4.525198    -6.199426    -1.530121
 O    -5.004181    -5.490350    -1.075430
 H    -5.786105    -5.291250    -1.633896
 H     2.737230    -5.582804    -1.971703
 O     1.943490    -6.151855    -1.916541
 H     1.171154    -5.547350    -1.742007
 H     3.243047    -3.754134    -6.009363
 O     4.198004    -3.709348    -6.291625
 H     4.286636    -2.930078    -6.846939
 H     7.437346     3.496728     2.127727
 O     7.344542     3.199705     1.213701
 H     6.419715     2.854866     1.155103
 H     6.690380    -3.700784    -0.077679
 O     7.189983    -4.483206    -0.364552
 H     8.080534    -4.331688     0.007714
 H    -7.475639    -4.354296    -2.662451
 O    -7.225680    -5.292405    -2.509172
 H    -7.828015    -5.623345    -1.815696
 H    -4.433021     6.374444     5.425820
 O    -3.544703     6.073602     5.155914
 H    -3.043412     5.821164     5.946302
 H     7.273887     3.394048     4.899288
 O     7.264066     3.053675     3.995167
 H     7.535821     2.118604     4.063031
 H    -5.703468     0.337965     7.052339
 O    -6.457433    -0.237566     7.318922
 H    -6.167588    -1.142595     7.116055
 H    -0.450561    -4.619842    -3.253534
 O    -0.638403    -4.461789    -4.196804
 H    -1.222482    -5.165435    -4.507713
 H     6.768166     0.118414     4.188482
 O     7.734307     0.330542     4.143237
 H     7.931253     0.358757     3.180198
 H     4.842772    -6.211086    -4.436046
 O     4.141345    -6.356487    -5.107102
 H     4.241275    -5.640263    -5.742926
 H    -5.989228    -1.597875    -5.291206
 O    -6.592634    -2.364618    -5.444345
 H    -7.458480    -1.942733    -5.681915
 H    -7.580040     0.117556     6.148103
 O    -8.161492     0.488350     5.436857
 H    -8.777684     1.075625     5.877731
 H    -5.310190     5.507602     2.735068
 O    -5.568827     6.430851     2.537353
 H    -4.721115     6.922155     2.536951
 H     5.654395     2.031745    -4.016123
 O     5.897735     1.292419    -4.614913
 H     5.387788     1.428759    -5.415920
 H    -5.997985     6.336544     0.882800
 O    -6.037836     6.175648    -0.083142
 H    -5.159086     6.452457    -0.418802
 H    -0.197628    -7.179673    -3.667956
 O    -0.884039    -7.363269    -3.016107
 H    -0.465016    -7.753005    -2.239616
 H    -2.410922    -1.982137     5.411865
 O    -1.742610    -2.703608     5.492846
 H    -0.913582    -2.236056     5.707442
 H     7.558144    -4.184227    -2.011836
 O     7.658756    -4.104855    -2.984990
 H     6.869874    -3.620394    -3.283987
 H    -8.846433    -2.837386    -3.354961
 O    -7.920784    -2.760263    -3.028431
 H    -7.394051    -2.508218    -3.802179
 H     8.814162    -2.877346    -3.308941
 O     9.428761    -2.129114    -3.465028
 H     8.914144    -1.317718    -3.304693
 H    -5.076108    -4.768963    -3.856533
 O    -5.056118    -3.816161    -3.663638
 H    -5.596665    -3.387248    -4.338414
 H    -3.813368     4.207114    -3.215120
 O    -3.533108     5.041059    -2.804003
 H    -3.844961     5.770644    -3.340787
 H    -0.432801     5.042162    -3.742443
 O    -1.072287     4.325611    -3.581653
 H    -1.856918     4.727861    -3.157461
 H    -1.786198    -4.438370     5.071654
 O    -2.069745    -5.280999     4.683848
 H    -3.008765    -5.139261     4.471528
 H    -2.655886     8.608483    -3.163523
 O    -2.843527     7.662000    -3.329319
 H    -2.658143     7.492480    -4.279274
 H    -3.083296     7.053472     3.743940
 O    -3.032028     7.313705     2.808897
 H    -2.427786     6.660553     2.400625
 H     4.835706     1.404862     4.165374
 O     4.659318     2.365939     4.067560
 H     5.521074     2.760043     3.835055
 H     7.999301    -1.975781     5.945339
 O     8.434738    -2.113214     5.080974
 H     8.365424    -1.238429     4.649416
 H     6.167636    -1.865818     7.503673
 O     6.861892    -1.309803     7.135473
 H     6.386813    -0.536854     6.755627
 H    -1.988707     6.071623    -6.069528
 O    -2.137878     6.994429    -5.812081
 H    -1.277495     7.442880    -5.895901
 H    -8.131973    -0.587927     4.042517
 O    -7.952379    -1.066954     3.221295
 H    -7.039733    -1.401817     3.282689
 H    -8.534524    -0.017895     0.325917
 O    -8.563302     0.571663     1.097726
 H    -8.510084    -0.023999     1.864537
 H     0.935435    -0.887984     5.808358
 O     0.116108    -1.010001     6.342863
 H    -0.408109    -0.229340     6.092954
 H    -0.652231     7.131736    -1.211266
 O    -0.619319     6.807494    -2.133650
 H    -1.486258     7.017595    -2.548339
 H     0.728422    -7.998228     0.005549
 O    -0.177914    -8.248253    -0.233328
 H    -0.609224    -8.377971     0.638781
 H     2.041256     2.389046     5.339098
 O     2.038222     2.171033     4.383084
 H     2.973549     2.229136     4.115612
 H    -7.996271    -5.252170    -5.757135
 O    -7.109765    -5.069051    -6.109282
 H    -6.973212    -4.119469    -5.994645
 H     3.185531    -7.534486     0.482014
 O     2.287613    -7.194922     0.461314
 H     2.190507    -6.794918    -0.439316
 H     3.051439     6.264166    -7.113300
 O     3.220237     5.316016    -7.300473
 H     2.404232     4.835691    -7.090930
 H    -0.662817     6.951976     0.951822
 O    -0.381702     7.701041     0.399708
 H    -1.069109     8.373615     0.508796
 H     4.442124     3.421702     5.341876
 O     4.358084     4.018203     6.124683
 H     5.245496     4.073954     6.488858
 H     7.695742     2.534559     6.808319
 O     7.150312     3.365301     6.798024
 H     7.634787     4.002605     7.321543
 H     4.164659    -7.803077    -1.651743
 O     4.688416    -7.303333    -1.004358
 H     5.103950    -6.609344    -1.540601
 H     6.754390    -5.589657    -3.220055
 O     5.998708    -6.205604    -3.198448
 H     6.354299    -7.112405    -3.193418
 H    -8.919094    -2.461119     2.985615
 O    -9.393030    -3.272023     2.704463
 H    -10.145817    -2.946172     2.182364
 H    -2.846678     8.638283     1.595986
 O    -2.729005     9.055330     0.726241
 H    -3.539152     9.610314     0.607241
 H     8.198282     0.364562     7.203902
 O     8.517026     1.102869     6.673587
 H     8.355994     0.833044     5.752725
 H    -2.343142     4.585319     7.995448
 O    -2.083049     4.866592     7.119411
 H    -2.270392     4.095279     6.504917
 H    -6.263055    -6.267058    -3.654510
 O    -5.604753    -6.404467    -4.359909
 H    -6.066891    -6.074194    -5.160434
 H     6.860320    -2.797107     2.340265
 O     6.963284    -2.469001     1.427712
 H     7.907180    -2.517597     1.217685
 H     2.159817     6.822788    -0.464977
 O     2.412154     7.527694     0.172861
 H     1.568314     7.825942     0.534206
 H    -4.134982    -7.192062    -3.309632
 O    -3.557949    -7.276189    -2.541931
 H    -2.651863    -7.357932    -2.890380
 H     0.620036     7.107362    -5.227210
 O     0.423217     8.001598    -5.591812
 H     0.442894     8.584673    -4.804964
 H    -8.303180    -1.651046    -1.646086
 O    -8.583389    -1.446460    -0.740403
 H    -8.328500    -2.263322    -0.254981
 H    -3.470976     7.211616    -1.690179
 O    -3.547289     6.969532    -0.757400
 H    -3.250742     7.745704    -0.237374
 H     2.906746    -4.628426     1.969471
 O     1.993698    -4.967633     1.913622
 H     2.074224    -5.838975     1.477922
 H    -8.934552    -0.564588    -4.931569
 O    -8.850769    -1.087237    -5.763096
 H    -8.589981    -0.437454    -6.439478
 H     7.435279     0.385104    -4.069493
 O     8.094890     0.314713    -3.360114
 H     8.751598     1.005292    -3.527821
 H     4.065164     6.779347     0.245028
 O     4.781681     6.172140    -0.000351
 H     4.333668     5.342735    -0.279126
 H    -8.045829     0.240057    -3.075263
 O    -8.950782     0.264005    -3.449601
 H    -9.535508    -0.028021    -2.748903
 H     5.959057     4.154699    -3.167118
 O     5.504713     3.340373    -2.882367
 H     6.112525     2.884642    -2.252835
 H    -1.233405    -6.905261    -0.352429
 O    -1.866302    -6.166771    -0.467544
 H    -2.466860    -6.438709    -1.168166
 H    -3.823686    -7.889459     0.533348
 O    -4.041305    -7.695441     1.448060
 H    -3.840887    -6.736711     1.570722
 H    -2.776710    -5.181344     0.864040
 O    -3.478532    -5.117650     1.532273
 H    -3.195145    -4.436294     2.175076
 H     4.598342    -6.508526     4.400486
 O     3.985234    -6.259817     3.658603
 H     4.540851    -6.144780     2.871241
 H    -9.555662    -6.092343    -4.142466
 O    -9.595566    -5.578008    -4.981398
 H    -10.237435    -6.025754    -5.532894
 H     6.321312    -5.557655     0.726877
 O     5.851908    -6.195425     1.306335
 H     5.462192    -6.801532     0.657357
 H    -1.222414    -6.897994     2.126195
 O    -1.348858    -7.861673     2.121138
 H    -2.306887    -8.000922     2.124653
 H    -10.111116    -3.903873    -4.573514
 O    -10.251536    -2.999685    -4.245450
 H    -10.043073    -2.397941    -4.972957
 H     0.227160     8.182948    -2.770350
 O     0.524643     9.047648    -3.122956
 H     1.429590     9.182262    -2.772310
 H    -9.032802    -7.919678    -2.884199
 O    -9.634945    -7.176319    -2.826515
 H    -9.506845    -6.796152    -1.938579
 H     2.127997     0.421661     4.541974
 O     2.248149    -0.455213     4.953459
 H     2.459710    -1.086848     4.233162
 H    -6.729064     0.777218    -7.459824
 O    -7.686882     0.837016    -7.310219
 H    -7.852236     1.715969    -6.966919
 H     5.998456     4.492057    -7.157316
 O     5.424360     4.369951    -6.401192
 H     4.564608     4.830292    -6.649664
 H    -5.539931     10.146429     1.376000
 O    -5.064796     10.229320     0.538370
 H    -5.653147     9.775210    -0.096661
 H    -0.919173    -0.739104    -5.826595
 O    -1.107821    -0.042535    -6.492526
 H    -0.332633     0.546555    -6.416831
 H     4.593871     0.115883    -7.066383
 O     4.698161    -0.828154    -6.905927
 H     5.554695    -0.941797    -6.457336
 H     2.609281    -8.582655    -3.255747
 O     3.564795    -8.495733    -3.267331
 H     3.766402    -7.858204    -3.968113
 H    -4.402098     0.007062    -7.839578
 O    -4.918498     0.728385    -7.448792
 H    -4.244948     1.361142    -7.109668
 H     1.371029     3.354331     6.849429
 O     2.131700     2.762083     7.008393
 H     2.932702     3.308230     6.905016
 H    -11.314687    -2.828311     0.019766
 O    -10.898516    -2.223601     0.634340
 H    -10.182619    -1.786976     0.139737
 H    -7.335669     1.402756     7.818899
 O    -7.825432     2.237486     7.797617
 H    -7.933137     2.515748     8.706590
 H     6.303775    -8.813666    -1.861664
 O     6.373118    -8.873542    -2.819501
 H     5.486128    -9.093604    -3.130877
 H     6.466894     5.423480    -0.593517
 O     7.113081     4.790555    -0.923470
 H     7.327921     4.212566    -0.163042
 H    -5.230528    -3.286348     5.722155
 O    -5.247183    -2.563887     6.388233
 H    -4.602302    -2.848299     7.058884
 H     2.696219     1.084345     7.484242
 O     3.178437     0.258387     7.336324
 H     2.848414    -0.081084     6.477599
 H    -2.546999    -3.308774     6.884137
 O    -3.016257    -3.503159     7.724149
 H    -2.388560    -3.205330     8.398594
 H     5.835207     1.755396     6.659689
 O     5.562091     0.892999     6.341692
 H     4.685842     0.700566     6.736973
 H     1.725159    -4.143822     3.985601
 O     2.425450    -4.334307     4.624892
 H     2.952445    -5.077572     4.212939
 H     10.416468    -2.376023    -2.168667
 O     10.929955    -2.428350    -1.316907
 H     11.853902    -2.369164    -1.553626
 H     3.648993     8.544622    -2.440260
 O     2.966604     9.082032    -2.019399
 H     2.815142     8.673141    -1.147690
 H    -8.058918    -6.605446     0.098143
 O    -8.724260    -6.160116    -0.451312
 H    -8.682447    -5.228408    -0.123797
 H    -0.995121     9.870167    -2.648522
 O    -1.932052     10.004494    -2.410270
 H    -1.982638     10.062705    -1.453706
 H     3.950504     4.344623    -3.590550
 O     3.384195     5.121409    -3.555635
 H     3.935479     5.892072    -3.306611
 H     4.987287     6.826082    -1.648036
 O     4.896145     7.093253    -2.583444
 H     5.675781     6.778811    -3.059035
 H    -0.394664     4.816872     6.396143
 O     0.325711     4.380846     5.919347
 H     0.999782     5.053719     5.658930
 H     3.164462     5.324160     5.420376
 O     2.386242     5.775066     5.060394
 H     2.322614     5.500288     4.131923
 H    -7.372237     8.861763     0.505773
 O    -7.094516     8.699492    -0.405358
 H    -6.844703     7.759284    -0.440134
 H    -1.166363    -5.243225     3.270863
 O    -0.739887    -5.084002     2.398872
 H     0.185329    -5.341602     2.453854
 H     4.374056    -2.404036     6.012759
 O     4.366551    -2.511547     5.035048
 H     3.606481    -3.124505     4.853202
 H     7.324309    -6.286039     2.764891
 O     7.735036    -5.883840     3.547689
 H     7.180801    -5.085970     3.716465
 H     9.268834    -4.763977     3.467686
 O     9.902193    -4.026216     3.343351
 H     9.648921    -3.374263     4.015541
 H     2.733615     8.504317    -7.604029
 O     2.762247     7.919465    -6.848221
 H     1.895721     8.025872    -6.385421
 H    -0.447771    -1.795561     8.012828
 O    -0.627530    -2.476735     8.675895
 H     0.094469    -3.106721     8.595547
 H     8.211642     4.808604    -2.137803
 O     8.874879     4.891041    -2.870882
 H     9.596515     5.396529    -2.496659
 H     6.172761     5.151358    -4.989358
 O     6.503640     5.501988    -4.141326
 H     7.454848     5.357116    -4.081985
 H     10.502520     2.648606    -4.234282
 O     9.781034     2.488822    -3.627841
 H     9.386861     3.361012    -3.402028
 H     3.333227    -2.811181     7.666384
 O     4.159333    -2.287720     7.688500
 H     3.865939    -1.373336     7.820803
 H    -2.573483    -1.447324    -8.849652
 O    -2.973680    -1.173187    -8.025431
 H    -2.267922    -0.737348    -7.500443
 H     5.004141     5.416306     1.772287
 O     4.823226     4.810847     2.502330
 H     3.855597     4.811186     2.620343
 H    -3.748366    -6.045273    -5.143658
 O    -2.952349    -5.512757    -5.207461
 H    -3.206846    -4.709480    -5.688638
 H    -6.610276     5.749844     5.412149
 O    -6.195320     6.598659     5.171292
 H    -6.080319     6.577583     4.195313
 H    -7.442179     3.630650     6.518457
 O    -7.206090     4.115490     5.717652
 H    -6.958528     3.431216     5.074784
 H    -7.414309     9.208776     3.166651
 O    -7.195513     9.657179     2.324160
 H    -7.680450     10.483121     2.334002
 H    -5.820982    -7.127186     1.377740
 O    -6.454675    -6.485413     1.020657
 H    -5.939417    -5.991148     0.347596
 H    -3.558317    -5.209869     7.390870
 O    -3.784980    -6.031454     6.919254
 H    -2.999348    -6.257279     6.407670
 H     9.495699     1.076462    -0.688194
 O     9.524202     2.042561    -0.814073
 H     9.812857     2.172081    -1.723554
 H    -7.838377    -4.526289     3.142271
 O    -6.907844    -4.771280     3.112009
 H    -6.782163    -5.364003     2.343316
 H     1.236202    -2.632202     6.782690
 O     1.748502    -3.394684     7.073132
 H     1.949999    -3.898870     6.266798
 H    -3.541966    -2.503449    -6.930144
 O    -3.931335    -3.174958    -6.350935
 H    -4.883682    -3.057638    -6.406470
 H    -8.799456     7.978129     4.531168
 O    -8.017108     8.518534     4.650967
 H    -7.320795     7.914817     4.985594
 H     7.929650    -1.605098    -5.449840
 O     7.000228    -1.370700    -5.440759
 H     6.556190    -2.055126    -4.904960
 H    -4.705773    -5.325965     5.562285
 O    -4.778659    -4.696262     4.818592
 H    -5.547182    -4.927723     4.277365
 N     5.755344    -6.757345     5.749163
 H     5.724312    -6.006646     6.432884
 H     6.655799    -6.698369     5.272129
 H     5.725230    -7.632628     6.261878
