604
grain_mol29 // -1931.170314934306 // -65.3817410327 // -973.774901737006 // -1022.77715423 // -0.0661695528 // -0.583328944615 // -0.019097575689
 H    -1.775066    -0.135888     2.498126
 O    -0.796275    -0.097870     2.557388
 H    -0.503856    -0.991189     2.856468
 H    -0.497941    -1.780262    -2.907245
 O    -0.549681    -1.820542    -1.939830
 H    -1.493807    -1.743279    -1.723015
 H    -2.791399     1.788917     0.941172
 O    -2.704031     1.165150     0.200847
 H    -1.931944     1.467948    -0.310524
 H    -3.870120     1.967323    -2.904402
 O    -3.375977     2.335405    -3.674056
 H    -2.467440     2.471164    -3.385531
 H    -0.169392    -0.594459    -0.823792
 O    -0.037997     0.123940    -0.175264
 H    -0.444123    -0.184969     0.645353
 H     0.813869    -1.787701    -4.864348
 O    -0.117999    -1.983189    -4.672037
 H    -0.202220    -2.947090    -4.725492
 H    -5.039647     2.389308    -1.125673
 O    -4.672637     1.575601    -1.522865
 H    -3.980103     1.290787    -0.880253
 H    -3.577865     3.289923     2.635908
 O    -2.854215     2.683476     2.386524
 H    -2.075230     3.025077     2.863041
 H     2.437638     0.371098    -2.998781
 O     1.848857    -0.279105    -2.564309
 H     0.938297     0.025863    -2.742121
 H    -1.269757     0.405317    -3.575111
 O    -0.462433     0.887522    -3.300048
 H    -0.700946     1.466827    -2.557553
 H     2.641841    -0.551300     0.487827
 O     2.541556    -1.284892    -0.153829
 H     2.255442    -0.886207    -0.997498
 H    -2.907794    -0.471103    -0.551806
 O    -3.058230    -0.916583    -1.396190
 H    -3.855165    -1.471503    -1.314281
 H     2.741188     1.314515    -0.843694
 O     1.919048     1.816880    -0.702621
 H     1.214397     1.158613    -0.524083
 H     0.418249     3.274099    -3.189332
 O     1.343403     3.093794    -2.976683
 H     1.369329     2.615698    -2.127735
 H     0.100069    -3.963587    -0.650110
 O    -0.139741    -4.639390    -1.324075
 H    -0.910417    -5.107672    -0.929018
 H    -6.247957     2.027076     3.184419
 O    -6.287026     2.208753     4.159898
 H    -7.024905     1.666859     4.502417
 H     1.151266    -3.722786     1.186521
 O     0.719037    -3.068577     0.607437
 H     1.387291    -2.398262     0.357476
 H    -3.014689     5.231546    -0.832558
 O    -2.815459     4.425239    -0.320644
 H    -3.695714     4.046112    -0.116512
 H    -5.509287    -1.342297     1.763464
 O    -5.257838    -0.689827     1.075351
 H    -5.379050    -1.133884     0.230758
 H    -0.297258    -3.253883     2.967612
 O     0.013476    -2.448470     3.414541
 H     0.952604    -2.336347     3.192644
 H     5.162440     1.115900    -1.261902
 O     4.387555     0.572508    -1.061591
 H     4.638953     0.144294    -0.210958
 H     0.683093     2.394856     1.076403
 O     0.697617     2.039774     1.974423
 H     0.095801     1.274676     2.022977
 H     4.354015    -0.397928    -2.440842
 O     4.541262    -0.866429    -3.286474
 H     5.004206    -0.205803    -3.842579
 H     2.949914     3.320660    -1.001403
 O     3.824625     3.731276    -0.992102
 H     4.294129     3.457696    -1.802892
 H    -5.953939    -1.497775    -1.817588
 O    -5.409188    -2.201309    -1.402564
 H    -5.331515    -2.904634    -2.070174
 H    -4.902055    -4.118087     1.249904
 O    -5.601260    -3.487902     0.993469
 H    -5.391654    -3.185102     0.099775
 H     2.567103     2.261369    -3.683928
 O     3.242302     1.591490    -3.917718
 H     3.291931     1.573739    -4.879007
 H    -5.156984     3.744252     3.916072
 O    -4.601571     4.347103     3.410526
 H    -4.065739     4.871647     4.043253
 H     0.481837     1.121793    -4.729533
 O     0.955942     1.026719    -5.581301
 H     1.570323     0.275227    -5.449705
 H     0.885945     5.857365    -2.196694
 O     1.691264     5.528706    -1.761753
 H     2.233862     5.098774    -2.451967
 H    -2.847714    -3.454116    -1.815511
 O    -2.974376    -3.725486    -0.890627
 H    -3.733066    -4.325058    -0.857044
 H     1.895052     5.290736    -4.481632
 O     1.010627     5.380593    -4.877054
 H     0.989761     4.697190    -5.573614
 H     7.684672     1.934553    -1.034780
 O     6.892934     1.582112    -1.478598
 H     7.243218     0.912067    -2.099816
 H     4.438256     2.825025     0.295531
 O     4.794408     2.450737     1.126279
 H     4.730162     3.183457     1.773509
 H     0.995669    -3.110231    -2.282860
 O     1.843154    -2.941143    -2.720062
 H     1.921752    -1.964027    -2.731821
 H     1.086597     4.639711    -0.532964
 O     0.647827     4.149696     0.198741
 H    -0.027041     4.746167     0.569425
 H    -5.772821     0.926782     1.372009
 O    -6.261413     1.746186     1.588713
 H    -7.196878     1.505801     1.366806
 H    -2.295803    -2.658591     0.237716
 O    -1.810012    -2.096032     0.870818
 H    -0.898626    -2.431408     0.842030
 H    -3.631765    -0.474009     4.325919
 O    -3.602591    -0.627007     5.297944
 H    -4.345511    -1.218118     5.557228
 H    -6.017418    -2.991726     3.270032
 O    -5.578786    -2.130197     3.366585
 H    -4.624367    -2.348034     3.339810
 H    -2.968713    -0.356568    -2.960422
 O    -2.726220    -0.399353    -3.912426
 H    -2.562461    -1.363428    -4.013567
 H    -3.542172    -3.340424    -3.736942
 O    -2.680068    -2.956631    -3.504334
 H    -1.989013    -3.580740    -3.801551
 H     3.089871    -1.032646    -4.375440
 O     2.521962    -1.141836    -5.162051
 H     3.140487    -1.287000    -5.895999
 H     4.464669     2.534637    -6.677899
 O     3.941601     1.707301    -6.698855
 H     3.093214     1.943580    -7.083022
 H    -4.114440     0.790744     5.876693
 O    -4.598114     1.606100     6.166899
 H    -5.180623     1.840627     5.416382
 H    -3.953644    -0.177333     2.067839
 O    -3.401979     0.124487     2.809612
 H    -3.328977     1.098462     2.748027
 H    -5.899206     0.577307    -2.121573
 O    -6.446273    -0.081563    -2.597153
 H    -6.036963    -0.153682    -3.481063
 H     1.784329    -3.703114    -4.275173
 O     1.713708    -4.143669    -5.144760
 H     1.322204    -5.013340    -4.962390
 H     4.440672    -3.502289    -0.850076
 O     4.727001    -2.761287    -0.272495
 H     3.958561    -2.143681    -0.241330
 H    -0.337863     3.044584    -0.834224
 O    -1.093483     2.673111    -1.319896
 H    -1.810792     3.320705    -1.158304
 H     1.712456     4.376873     1.615496
 O     2.183836     4.496553     2.459871
 H     2.013397     3.693104     2.976334
 H     3.681639     1.173228     1.576415
 O     2.917443     0.585566     1.734440
 H     2.144455     1.160237     1.895891
 H     3.083466    -3.876432    -2.264304
 O     3.796154    -4.504150    -1.989022
 H     4.459646    -4.480696    -2.695961
 H     4.857667    -3.618397    -4.746179
 O     5.304232    -3.321757    -3.915521
 H     4.897046    -2.474074    -3.643174
 H    -1.119940     4.997126     2.250446
 O    -1.321320     5.569289     1.473106
 H    -1.964562     5.080881     0.897556
 H    -5.749765     3.116706     0.667772
 O    -5.318535     3.640617    -0.034126
 H    -5.780545     4.495577    -0.155585
 H     5.068803    -3.874380     2.695201
 O     4.301963    -3.695355     2.143831
 H     4.612898    -3.379269     1.266421
 H     6.102842    -1.134984     1.227533
 O     5.524313    -0.327626     1.167642
 H     6.164693     0.395912     1.228358
 H     1.549489    -6.585819    -3.272028
 O     1.349524    -6.781270    -4.212988
 H     2.215680    -6.837236    -4.642496
 H    -7.202151    -3.701383     0.829329
 O    -8.174248    -3.700090     0.649546
 H    -8.616586    -3.534198     1.510436
 H     3.268195    -2.463972     2.646399
 O     2.579931    -1.807660     2.864192
 H     2.786418    -0.986622     2.381873
 H    -1.873903     2.537498     5.190934
 O    -2.593668     3.170195     5.371594
 H    -3.320609     2.649234     5.762229
 H    -0.779588     0.796946     4.014710
 O    -0.646237     1.330119     4.830257
 H     0.186633     1.793690     4.690787
 H     0.035072     3.628656    -6.855639
 O     0.993921     3.436232    -6.760960
 H     1.028112     2.573979    -6.304792
 H     7.239982    -2.978484     4.554558
 O     6.476595    -3.352506     4.022916
 H     5.677442    -3.003380     4.493739
 H     8.273666     1.608571     1.378818
 O     8.296366     0.684955     1.691562
 H     8.551018     0.136052     0.918673
 H    -4.232165    -0.405727    -4.597747
 O    -5.167746    -0.446556    -4.913390
 H    -5.178995    -0.048886    -5.805447
 H     6.359067    -1.286418    -2.370586
 O     6.790828    -1.761294    -1.655144
 H     6.075438    -2.060068    -1.061433
 H     4.759664    -0.893636     4.285708
 O     5.146108    -0.129939     3.827062
 H     5.082727    -0.273600     2.860253
 H    -0.030428     3.239253     2.951635
 O    -0.656541     3.878712     3.346963
 H    -0.328735     4.118127     4.235481
 H     8.138856    -1.070930    -0.952198
 O     8.938757    -0.722074    -0.492923
 H     9.644562    -1.376574    -0.656413
 H     9.717823    -4.070573     1.900481
 O     9.392635    -3.720800     1.027243
 H     10.149582    -3.583525     0.441146
 H    -2.336375    -2.713394     3.814317
 O    -2.975367    -2.787666     3.095387
 H    -2.540956    -2.433872     2.278792
 H    -2.356538     0.925786    -6.222074
 O    -2.992387     1.668141    -6.228202
 H    -3.225766     1.825219    -5.289530
 H    -1.438727     3.979510    -5.393592
 O    -1.582515     3.968496    -6.368547
 H    -2.168881     3.205351    -6.518135
 H    -4.616100    -6.241819    -1.229740
 O    -5.086262    -5.509447    -0.803842
 H    -5.869614    -5.327866    -1.366426
 H     2.648901    -5.708673    -1.729696
 O     1.851402    -6.268484    -1.641015
 H     1.083954    -5.649719    -1.494309
 H     3.151643    -4.059912    -5.845498
 O     4.105676    -4.035635    -6.133344
 H     4.197870    -3.282133    -6.722652
 H     7.443577     3.499122     1.957552
 O     7.343626     3.176454     1.051922
 H     6.417521     2.832077     1.012986
 H     6.630222    -3.778416     0.070374
 O     7.122978    -4.575013    -0.190279
 H     8.014239    -4.415554     0.176813
 H    -7.555744    -4.421946    -2.427259
 O    -7.312691    -5.354599    -2.234399
 H    -7.914749    -5.650092    -1.524787
 H    -4.382214     6.619320     5.175882
 O    -3.497969     6.299352     4.914933
 H    -2.994862     6.076805     5.713191
 H     7.296811     3.519347     4.720119
 O     7.281108     3.144477     3.830543
 H     7.533739     2.201310     3.943908
 H    -5.696050     0.670014     7.067597
 O    -6.453713     0.113063     7.361928
 H    -6.172342    -0.802347     7.197553
 H    -0.536963    -4.774132    -3.038512
 O    -0.726476    -4.655876    -3.987166
 H    -1.319908    -5.365732    -4.264637
 H     6.713674     0.276494     4.318970
 O     7.649346     0.575696     4.268238
 H     7.917774     0.380172     3.345127
 H     4.737610    -6.460122    -4.175265
 O     4.031396    -6.628689    -4.835517
 H     4.133827    -5.941977    -5.502790
 H    -6.058808    -1.794568    -5.179566
 O    -6.669316    -2.562038    -5.296656
 H    -7.532799    -2.143294    -5.548228
 H    -7.578748     0.427097     6.182163
 O    -8.160645     0.771673     5.458127
 H    -8.769549     1.382873     5.876027
 H    -5.279926     5.644720     2.529066
 O    -5.531733     6.560703     2.292434
 H    -4.679885     7.044182     2.267229
 H     5.621775     1.784820    -4.114691
 O     5.856463     1.018136    -4.681974
 H     5.343437     1.124335    -5.485645
 H    -5.969776     6.398754     0.645751
 O    -6.015703     6.196602    -0.312185
 H    -5.136304     6.451126    -0.663406
 H    -0.307580    -7.351294    -3.343569
 O    -0.991745    -7.499706    -2.680533
 H    -0.572431    -7.860706    -1.890561
 H    -2.432912    -1.748185     5.513720
 O    -1.770065    -2.471045     5.622396
 H    -0.936920    -1.999931     5.813177
 H     7.481492    -4.354081    -1.851826
 O     7.578590    -4.317933    -2.827916
 H     6.792079    -3.840659    -3.144616
 H    -8.916909    -2.924539    -3.178446
 O    -7.988941    -2.841691    -2.859903
 H    -7.464114    -2.627390    -3.646197
 H     8.742192    -3.117471    -3.209919
 O     9.364771    -2.382281    -3.394757
 H     8.856581    -1.560216    -3.272539
 H    -5.166108    -4.908519    -3.613292
 O    -5.136419    -3.948476    -3.462075
 H    -5.677039    -3.544253    -4.151919
 H    -3.823845     4.075508    -3.366426
 O    -3.533899     4.923721    -2.993088
 H    -3.842310     5.632458    -3.559007
 H    -0.438572     4.857444    -3.944278
 O    -1.083336     4.154011    -3.750158
 H    -1.862394     4.580983    -3.339990
 H    -1.829198    -4.221566     5.276925
 O    -2.121384    -5.077169     4.925226
 H    -3.061001    -4.936983     4.713942
 H    -2.628356     8.464595    -3.510154
 O    -2.824962     7.513526    -3.634191
 H    -2.645577     7.301614    -4.576707
 H    -3.035096     7.213312     3.459906
 O    -2.986322     7.432356     2.514200
 H    -2.389471     6.756975     2.132023
 H     4.838873     1.520518     4.089292
 O     4.669749     2.478088     3.948952
 H     5.537218     2.850926     3.699680
 H     8.127196    -1.887373     6.030295
 O     8.552495    -2.405070     5.318089
 H     9.029224    -1.758354     4.742897
 H     6.188063    -1.620299     7.542480
 O     6.872074    -1.073564     7.142651
 H     6.387483    -0.316706     6.743972
 H    -1.996785     5.798839    -6.306946
 O    -2.136913     6.733147    -6.089026
 H    -1.273198     7.170129    -6.195897
 H    -8.147210    -0.363705     4.111532
 O    -7.975725    -0.879482     3.311051
 H    -7.065610    -1.219074     3.382825
 H    -8.563051     0.048553     0.375659
 O    -8.583060     0.671135     1.121326
 H    -8.531126     0.108838     1.913019
 H     0.926410    -0.664613     5.849856
 O     0.105871    -0.760026     6.388253
 H    -0.411529     0.015186     6.109179
 H    -0.627672     7.056129    -1.505091
 O    -0.602135     6.692177    -2.412852
 H    -1.469352     6.891711    -2.832086
 H     0.630136    -8.019416     0.359903
 O    -0.278701    -8.271195     0.135563
 H    -0.709105    -8.358353     1.013815
 H     2.058223     2.577663     5.231539
 O     2.048855     2.318871     4.285728
 H     2.984137     2.356528     4.012981
 H    -8.099105    -5.448163    -5.477932
 O    -7.212639    -5.288150    -5.841313
 H    -7.067724    -4.335655    -5.768782
 H     3.095914    -7.558269     0.793458
 O     2.204572    -7.201212     0.776805
 H     2.096690    -6.845794    -0.142669
 H     3.039732     5.902140    -7.380699
 O     3.199644     4.945286    -7.527275
 H     2.380488     4.481737    -7.293560
 H    -0.629210     6.970172     0.663806
 O    -0.344790     7.692069     0.078145
 H    -1.025737     8.374800     0.161575
 H     4.468566     3.587368     5.178573
 O     4.391933     4.218697     5.935074
 H     5.281256     4.280055     6.294102
 H     7.722240     2.730979     6.668435
 O     7.181106     3.565525     6.628394
 H     7.674429     4.220418     7.120891
 H     4.057447    -7.926574    -1.327244
 O     4.586489    -7.401446    -0.704507
 H     5.007672    -6.737240    -1.273695
 H     6.660215    -5.804091    -2.995145
 O     5.899516    -6.411788    -2.942361
 H     6.247243    -7.320929    -2.902319
 H    -8.955267    -2.274026     3.140343
 O    -9.437250    -3.092243     2.896402
 H    -10.190055    -2.782698     2.364519
 H    -2.795545     8.701667     1.244377
 O    -2.678744     9.079623     0.356802
 H    -3.484674     9.636047     0.217704
 H     8.244847     0.623667     7.341635
 O     8.551375     1.301904     6.723373
 H     8.310513     0.922976     5.845309
 H    -2.294705     4.924520     7.811006
 O    -2.037876     5.165878     6.922188
 H    -2.233855     4.370131     6.342630
 H    -6.364491    -6.386106    -3.341038
 O    -5.710629    -6.559600    -4.042660
 H    -6.173917    -6.260332    -4.854686
 H     6.798307    -2.720686     2.523136
 O     6.938774    -2.499363     1.564483
 H     7.889099    -2.610903     1.395587
 H     2.185052     6.755279    -0.758727
 O     2.446462     7.485273    -0.153703
 H     1.607095     7.805782     0.198883
 H    -4.243340    -7.313725    -2.965676
 O    -3.662560    -7.369816    -2.198183
 H    -2.759341    -7.474255    -2.547727
 H     0.624595     6.847251    -5.521896
 O     0.433854     7.726547    -5.924064
 H     0.462183     8.342884    -5.163199
 H    -8.355255    -1.670222    -1.525124
 O    -8.629150    -1.424214    -0.627888
 H    -8.379053    -2.221498    -0.108637
 H    -3.448014     7.139994    -1.974120
 O    -3.521875     6.938962    -1.031474
 H    -3.216210     7.734201    -0.546662
 H     2.859991    -4.576713     2.134410
 O     1.948364    -4.929190     2.153386
 H     2.004787    -5.810045     1.729508
 H    -8.993384    -0.721304    -4.851572
 O    -8.917933    -1.280105    -5.660086
 H    -8.655154    -0.662344    -6.365097
 H     7.387817     0.120746    -4.103463
 O     8.052333     0.075646    -3.396243
 H     8.711339     0.754725    -3.599148
 H     4.093696     6.726067    -0.056489
 O     4.803641     6.103426    -0.281452
 H     4.347167     5.265958    -0.519170
 H    -8.088853     0.155136    -3.035610
 O    -8.995273     0.170483    -3.406783
 H    -9.579224    -0.085247    -2.691404
 H     5.947667     3.940133    -3.361115
 O     5.488908     3.141985    -3.039696
 H     6.094989     2.711115    -2.392161
 H    -1.325605    -6.925358    -0.038474
 O    -1.951304    -6.186386    -0.182615
 H    -2.558846    -6.482552    -0.867295
 H    -3.919314    -7.847107     0.901471
 O    -4.127939    -7.612694     1.808771
 H    -3.920424    -6.650944     1.888911
 H    -2.847333    -5.135705     1.110377
 O    -3.544930    -5.038324     1.778754
 H    -3.253495    -4.331515     2.389989
 H     5.370022    -6.245141     4.533913
 O     4.599507    -6.003825     4.016194
 H     4.876638    -6.067654     3.087110
 H    -9.657734    -6.203988    -3.821533
 O    -9.697184    -5.726085    -4.681755
 H    -10.345814    -6.191350    -5.210370
 H     6.299300    -5.623727     0.914358
 O     5.808591    -6.233900     1.502005
 H     5.342370    -6.814743     0.889148
 H    -1.302705    -6.809870     2.438511
 O    -1.434444    -7.772449     2.474424
 H    -2.393541    -7.904664     2.488736
 H    -10.196662    -4.031437    -4.344142
 O    -10.327546    -3.112758    -4.054695
 H    -10.117837    -2.544764    -4.808498
 H     0.252811     8.031402    -3.112133
 O     0.556039     8.877265    -3.503469
 H     1.463718     9.019110    -3.162840
 H    -9.144439    -7.979909    -2.487390
 O    -9.739593    -7.229248    -2.459553
 H    -9.604315    -6.812282    -1.589388
 H     2.124388     0.578517     4.520651
 O     2.234869    -0.281684     4.968513
 H     2.441133    -0.944739     4.276290
 H    -6.789013     0.491114    -7.445414
 O    -7.745514     0.565509    -7.294050
 H    -7.901820     1.459902    -6.988451
 H     5.970869     4.104272    -7.361644
 O     5.399753     4.019572    -6.598184
 H     4.542580     4.476397    -6.862210
 H    -5.476877     10.222355     0.971573
 O    -5.005279     10.264836     0.128928
 H    -5.600610     9.788792    -0.483103
 H    -0.984494    -1.003704    -5.774345
 O    -1.170027    -0.335294    -6.469241
 H    -0.389716     0.250024    -6.422232
 H     4.528818    -0.251091    -7.075348
 O     4.626625    -1.188138    -6.874598
 H     5.484266    -1.288976    -6.425335
 H     2.488708    -8.760292    -2.885604
 O     3.444765    -8.680499    -2.902500
 H     3.649352    -8.076924    -3.631968
 H    -4.470564    -0.315123    -7.802053
 O    -4.978842     0.426846    -7.440418
 H    -4.298330     1.067846    -7.132065
 H     1.403204     3.614912     6.701616
 O     2.158986     3.023083     6.882550
 H     2.965217     3.555908     6.751618
 H    -11.368617    -2.747889     0.203820
 O    -10.944040    -2.121179     0.789934
 H    -10.227099    -1.712281     0.273671
 H    -7.315174     1.781155     7.794909
 O    -7.798143     2.618274     7.739566
 H    -7.898836     2.936745     8.636071
 H     6.189503    -8.964299    -1.498474
 O     6.252427    -9.062663    -2.453535
 H     5.362575    -9.290615    -2.750683
 H     6.478819     5.315206    -0.850633
 O     7.119060     4.662643    -1.152990
 H     7.329577     4.119378    -0.365689
 H    -5.260227    -3.012689     5.893252
 O    -5.267639    -2.262077     6.527406
 H    -4.621845    -2.522526     7.206922
 H     2.708608     1.364494     7.429330
 O     3.179641     0.526585     7.317801
 H     2.847311     0.154793     6.473824
 H    -2.571314    -3.007663     7.042952
 O    -3.038282    -3.162129     7.892499
 H    -2.404770    -2.841091     8.550700
 H     5.853191     1.968832     6.561202
 O     5.564280     1.097611     6.284159
 H     4.690658     0.931638     6.694667
 H     2.060425    -4.412047     3.980248
 O     2.560191    -4.362338     4.807710
 H     3.264534    -5.024772     4.695427
 H     10.360213    -2.640012    -2.097953
 O     10.850881    -2.631629    -1.230691
 H     11.711664    -2.267064    -1.464050
 H     3.679171     8.377104    -2.813541
 O     3.003444     8.938169    -2.413370
 H     2.852658     8.568687    -1.524060
 H    -8.144909    -6.546518     0.430826
 O    -8.808698    -6.119414    -0.134675
 H    -8.757571    -5.174861     0.152328
 H    -0.954374     9.732885    -3.057837
 O    -1.888988     9.885411    -2.821501
 H    -1.934506     9.985428    -1.868136
 H     3.939413     4.128854    -3.782209
 O     3.380073     4.911353    -3.779341
 H     3.938736     5.687319    -3.565454
 H     5.005615     6.683127    -1.953935
 O     4.913086     6.910018    -2.900040
 H     5.688119     6.568702    -3.364263
 H    -0.352721     5.071126     6.193753
 O     0.360683     4.608420     5.732081
 H     1.040483     5.262765     5.440746
 H     3.206126     5.502769     5.181842
 O     2.430038     5.944980     4.806268
 H     2.359706     5.630833     3.890917
 H    -7.324285     8.917342     0.166061
 O    -7.052575     8.713317    -0.738478
 H    -6.810890     7.770364    -0.733552
 H    -1.230756    -5.105533     3.508690
 O    -0.804869    -4.995333     2.628003
 H     0.118699    -5.250917     2.698908
 H     4.342397    -2.214030     6.097102
 O     4.319255    -2.351170     5.125923
 H     3.607485    -3.001545     4.958825
 H     7.180565    -6.151293     2.884652
 O     7.574322    -5.801105     3.693318
 H     7.101816    -4.964760     3.871966
 H     9.183042    -5.217194     3.604537
 O     9.950083    -4.609658     3.484526
 H     9.816108    -3.965530     4.196348
 H     2.738403     8.121759    -7.966408
 O     2.765709     7.569508    -7.186413
 H     1.902473     7.703544    -6.724521
 H    -0.448785    -1.466745     8.094802
 O    -0.634494    -2.117715     8.786107
 H     0.081568    -2.756925     8.731832
 H     8.210508     4.618631    -2.370563
 O     8.872828     4.659992    -3.108319
 H     9.598375     5.179311    -2.761701
 H     6.161416     4.854948    -5.225028
 O     6.500139     5.238347    -4.394414
 H     7.450247     5.087421    -4.333772
 H     10.472037     2.349162    -4.381241
 O     9.757255     2.219068    -3.759671
 H     9.371221     3.103121    -3.567385
 H     3.298107    -2.532766     7.768894
 O     4.126031    -2.014628     7.762149
 H     3.843306    -1.092950     7.862120
 H    -2.659503    -1.827313    -8.756740
 O    -3.053072    -1.515021    -7.942974
 H    -2.341186    -1.062694    -7.440740
 H     5.028292     5.422789     1.524107
 O     4.845461     4.850847     2.279828
 H     3.878745     4.864250     2.402953
 H    -3.855031    -6.250748    -4.849786
 O    -3.054842    -5.728392    -4.940265
 H    -3.305191    -4.944509    -5.454567
 H    -6.564868     6.013643     5.198968
 O    -6.144102     6.847679     4.919645
 H    -6.033919     6.783375     3.945040
 H    -7.409141     3.951658     6.399744
 O    -7.173209     4.399256     5.577490
 H    -6.934343     3.685673     4.963887
 H    -7.350428     9.379213     2.809522
 O    -7.132050     9.788874     1.947400
 H    -7.609688     10.618784     1.923921
 H    -5.905020    -7.032094     1.722214
 O    -6.534635    -6.401071     1.339937
 H    -6.018471    -5.940675     0.644011
 H    -3.596629    -4.876250     7.636255
 O    -3.832762    -5.715067     7.200823
 H    -3.050842    -5.970559     6.697726
 H     9.466913     0.941534    -0.915942
 O     9.543318     1.917362    -0.969238
 H     9.820644     2.069921    -1.884671
 H    -7.891457    -4.339559     3.381503
 O    -6.963217    -4.593802     3.357320
 H    -6.846667    -5.220237     2.614472
 H     1.194391    -2.408369     6.838658
 O     1.707361    -3.151374     7.174496
 H     1.909759    -3.706229     6.405016
 H    -3.627454    -2.791510    -6.788810
 O    -4.019429    -3.433977    -6.179191
 H    -4.971049    -3.311002    -6.235371
 H    -8.739246     8.220819     4.232555
 O    -7.951729     8.759082     4.324985
 H    -7.258921     8.164405     4.682372
 H     7.858336    -1.930688    -5.402016
 O     6.931512    -1.686701    -5.396658
 H     6.483713    -2.343826    -4.830644
 H    -4.753415    -5.061322     5.819471
 O    -4.824167    -4.464718     5.048679
 H    -5.597958    -4.712191     4.522290
 N     10.248784    -1.185746     3.349644
 H     9.981174    -0.308922     2.908279
 H     10.303316    -1.878983     2.607895
 H     11.184678    -1.067927     3.724313
