604
grain_mol106 // -1859.822196859126 // -60.2838943213 // -897.331047520426 // -1022.77504366 // -0.0571908637 // -0.582901629168 // -0.016663954604
 H    -1.713261     0.056154     2.558395
 O    -0.733856     0.072416     2.622088
 H    -0.466303    -0.811166     2.969000
 H    -0.461852    -1.911316    -2.742465
 O    -0.516022    -1.897440    -1.774543
 H    -1.459129    -1.785258    -1.567107
 H    -2.673988     1.919164     0.894972
 O    -2.598777     1.252421     0.191956
 H    -1.819623     1.508128    -0.333888
 H    -3.735785     1.913759    -2.963732
 O    -3.228801     2.229853    -3.747652
 H    -2.317684     2.352720    -3.462001
 H    -0.109424    -0.623105    -0.726689
 O     0.042190     0.123739    -0.115384
 H    -0.379393    -0.128277     0.716661
 H     0.858289    -2.061676    -4.690330
 O    -0.079273    -2.221483    -4.493526
 H    -0.189550    -3.184299    -4.491448
 H    -4.899528     2.461851    -1.213042
 O    -4.551030     1.619382    -1.563375
 H    -3.869596     1.351419    -0.902720
 H    -3.428055     3.528783     2.501533
 O    -2.718823     2.891714     2.290046
 H    -1.933373     3.239149     2.751007
 H     2.529317     0.156250    -2.937181
 O     1.923095    -0.454359    -2.470447
 H     1.020749    -0.137228    -2.669333
 H    -1.173957     0.250727    -3.532692
 O    -0.354278     0.727105    -3.280868
 H    -0.581202     1.352166    -2.572843
 H     2.697084    -0.579603     0.594198
 O     2.583296    -1.344702    -0.006564
 H     2.307823    -0.986585    -0.871988
 H    -2.846115    -0.417470    -0.472235
 O    -3.001686    -0.904408    -1.292125
 H    -3.815431    -1.431430    -1.188775
 H     2.849258     1.207083    -0.836610
 O     2.040575     1.737337    -0.723834
 H     1.318081     1.107763    -0.515074
 H     0.586210     3.094672    -3.295144
 O     1.505715     2.903188    -3.067598
 H     1.515447     2.471048    -2.194169
 H     0.072734    -3.983964    -0.369445
 O    -0.180844    -4.689791    -1.006171
 H    -0.965858    -5.114696    -0.590698
 H    -6.131176     2.365845     3.105018
 O    -6.168522     2.601657     4.069358
 H    -6.921366     2.098217     4.436957
 H     1.124797    -3.671180     1.457578
 O     0.711881    -3.037938     0.842500
 H     1.397623    -2.399864     0.558840
 H    -2.803558     5.262751    -1.065039
 O    -2.626204     4.481991    -0.507555
 H    -3.516678     4.136659    -0.287451
 H    -5.475264    -1.094140     1.870823
 O    -5.202764    -0.485740     1.151485
 H    -5.333761    -0.969811     0.330348
 H    -0.318386    -3.068931     3.203859
 O     0.012844    -2.249235     3.608564
 H     0.954638    -2.173768     3.383611
 H     5.268015     0.923574    -1.232026
 O     4.477491     0.413668    -1.004593
 H     4.714294     0.026183    -0.132209
 H     0.813906     2.441770     1.014160
 O     0.817888     2.134421     1.929818
 H     0.194788     1.389859     2.016791
 H     4.423090    -0.630289    -2.330697
 O     4.601791    -1.148527    -3.148252
 H     5.083960    -0.530997    -3.736819
 H     3.110918     3.196099    -1.100389
 O     3.996758     3.582250    -1.107585
 H     4.461374     3.254563    -1.901206
 H    -5.911449    -1.434446    -1.698528
 O    -5.383862    -2.125263    -1.241902
 H    -5.324367    -2.866088    -1.870512
 H    -4.937481    -3.907634     1.510793
 O    -5.617872    -3.272254     1.220129
 H    -5.401172    -3.024800     0.310806
 H     2.709979     2.002606    -3.722655
 O     3.369205     1.304549    -3.916346
 H     3.420951     1.232790    -4.874988
 H    -4.999550     4.091623     3.747133
 O    -4.426597     4.652211     3.213251
 H    -3.879900     5.196067     3.819576
 H     0.600887     0.862013    -4.714069
 O     1.079605     0.711198    -5.555546
 H     1.671112    -0.050065    -5.381084
 H     1.116397     5.715321    -2.440688
 O     1.911813     5.390370    -1.985033
 H     2.444922     4.909789    -2.648759
 H    -2.857034    -3.461924    -1.573834
 O    -2.989321    -3.684787    -0.636413
 H    -3.768240    -4.255574    -0.574883
 H     2.118956     4.999779    -4.687496
 O     1.238730     5.091241    -5.091695
 H     1.201599     4.371306    -5.749703
 H     7.808725     1.694847    -1.043853
 O     7.006980     1.332712    -1.463624
 H     7.344253     0.621910    -2.045671
 H     4.582505     2.731488     0.227787
 O     4.925718     2.396024     1.080875
 H     4.877017     3.166980     1.683627
 H     0.995514    -3.244104    -2.041611
 O     1.849319    -3.120408    -2.481937
 H     1.952435    -2.147700    -2.546548
 H     1.280477     4.585366    -0.712420
 O     0.828269     4.147804     0.044000
 H     0.165850     4.779584     0.376936
 H    -5.678363     1.157098     1.357290
 O    -6.146353     1.999109     1.528254
 H    -7.087203     1.770327     1.314472
 H    -2.291693    -2.571980     0.434855
 O    -1.793407    -1.989437     1.040162
 H    -0.891052    -2.348947     1.032953
 H    -3.583831    -0.135475     4.393212
 O    -3.561482    -0.236303     5.372374
 H    -4.320600    -0.793054     5.659443
 H    -6.029869    -2.644967     3.464308
 O    -5.569320    -1.791220     3.518672
 H    -4.620974    -2.034617     3.505295
 H    -2.894452    -0.428950    -2.887986
 O    -2.643394    -0.531910    -3.832440
 H    -2.510603    -1.505228    -3.877637
 H    -3.538546    -3.427233    -3.500028
 O    -2.663476    -3.060378    -3.282730
 H    -1.994063    -3.718686    -3.548826
 H     3.150260    -1.337035    -4.232595
 O     2.582995    -1.474217    -5.015313
 H     3.200914    -1.674384    -5.736795
 H     4.624227     2.064262    -6.718561
 O     4.080208     1.250532    -6.697807
 H     3.239043     1.487705    -7.096971
 H    -4.039470     1.223679     5.870475
 O    -4.502413     2.065997     6.113591
 H    -5.076775     2.273862     5.348868
 H    -3.890632     0.045338     2.121337
 O    -3.333183     0.373332     2.847885
 H    -3.236240     1.340314     2.733485
 H    -5.799373     0.619575    -2.124232
 O    -6.361029    -0.052101    -2.562284
 H    -5.953360    -0.190800    -3.438213
 H     1.776441    -3.964039    -3.994056
 O     1.698509    -4.449257    -4.838900
 H     1.281629    -5.296321    -4.611954
 H     4.426166    -3.644455    -0.571869
 O     4.728739    -2.881141    -0.032068
 H     3.976220    -2.243598    -0.040479
 H    -0.183488     3.013332    -0.933597
 O    -0.946010     2.634878    -1.402358
 H    -1.647937     3.307544    -1.280540
 H     1.892151     4.424465     1.449307
 O     2.365111     4.576236     2.288011
 H     2.169750     3.807300     2.846188
 H     3.777953     1.176075     1.591660
 O     3.001211     0.615083     1.782106
 H     2.240166     1.215496     1.904824
 H     3.063678    -4.060648    -1.969919
 O     3.759760    -4.689289    -1.656796
 H     4.425484    -4.722158    -2.361427
 H     4.852485    -3.983759    -4.454429
 O     5.302496    -3.654054    -3.638423
 H     4.917037    -2.782315    -3.415377
 H    -0.926409     5.149290     2.035552
 O    -1.109651     5.683019     1.227371
 H    -1.763733     5.180870     0.675714
 H    -5.597235     3.302748     0.535943
 O    -5.148259     3.778847    -0.188644
 H    -5.590505     4.635189    -0.360888
 H     5.032277    -3.844213     2.988595
 O     4.272533    -3.668555     2.427236
 H     4.593500    -3.411820     1.533589
 H     5.867288    -1.340268     1.320534
 O     5.483740    -0.441620     1.291901
 H     6.278044     0.127012     1.308738
 H     1.463947    -6.780906    -2.837287
 O     1.262776    -7.023405    -3.766916
 H     2.128968    -7.123058    -4.188446
 H    -7.224117    -3.456318     1.060297
 O    -8.195492    -3.442041     0.879119
 H    -8.635268    -3.218019     1.727499
 H     3.267921    -2.389246     2.855997
 O     2.598045    -1.703373     3.037343
 H     2.824094    -0.916444     2.509358
 H    -1.752582     2.872506     5.102336
 O    -2.455674     3.532790     5.245551
 H    -3.198021     3.052564     5.659089
 H    -0.699811     1.043421     4.027369
 O    -0.554499     1.615925     4.814014
 H     0.289461     2.051170     4.652311
 H     0.222575     3.258834    -6.975709
 O     1.176495     3.048801    -6.867786
 H     1.188773     2.213170    -6.363681
 H     7.210507    -2.826443     4.699631
 O     6.440549    -3.276909     4.277635
 H     5.648480    -2.897264     4.727446
 H     8.067971     1.402919     1.255528
 O     7.974012     0.484637     1.572046
 H     8.439189    -0.096405     0.941840
 H    -4.129839    -0.604925    -4.514214
 O    -5.066146    -0.636024    -4.842127
 H    -5.002920    -0.303315    -5.763302
 H     6.403850    -1.566114    -2.204842
 O     6.820438    -2.013031    -1.462931
 H     6.096697    -2.258317    -0.855680
 H     4.795928    -0.767475     4.414823
 O     5.212116    -0.044384     3.916241
 H     5.138084    -0.235173     2.957044
 H     0.116363     3.404274     2.837031
 O    -0.493453     4.080691     3.194193
 H    -0.163345     4.359036     4.070219
 H     8.231363    -1.353524    -0.791812
 O     9.033711    -0.979598    -0.364882
 H     9.719961    -1.657205    -0.435713
 H     9.610330    -3.880629     2.113899
 O     9.300407    -3.713626     1.197299
 H     10.057972    -3.577178     0.617983
 H    -2.344128    -2.431525     4.009575
 O    -2.982649    -2.528681     3.293193
 H    -2.537406    -2.231296     2.459957
 H    -2.233877     0.653426    -6.206986
 O    -2.859661     1.402047    -6.263169
 H    -3.096107     1.617829    -5.337174
 H    -1.247043     3.723762    -5.543066
 O    -1.387674     3.661569    -6.516583
 H    -1.994685     2.907475    -6.625785
 H    -4.699672    -6.167712    -0.846869
 O    -5.152268    -5.403361    -0.460868
 H    -5.927379    -5.230024    -1.038729
 H     2.580273    -5.849459    -1.339121
 O     1.768467    -6.383219    -1.224063
 H     1.016326    -5.738053    -1.115287
 H     3.139834    -4.440470    -5.535734
 O     4.094828    -4.456402    -5.821017
 H     4.208592    -3.737707    -6.448743
 H     7.600891     3.418847     1.860108
 O     7.495536     3.037555     0.979267
 H     6.559135     2.721090     0.953866
 H     6.602318    -3.928503     0.364496
 O     7.073136    -4.753000     0.157295
 H     7.970057    -4.595331     0.512580
 H    -7.584736    -4.342154    -2.150015
 O    -7.364453    -5.272911    -1.911567
 H    -7.975487    -5.514696    -1.190378
 H    -4.154898     7.010540     4.853492
 O    -3.277881     6.654953     4.614988
 H    -2.783743     6.463148     5.426600
 H     7.441238     3.592300     4.628233
 O     7.417127     3.166187     3.761442
 H     7.657520     2.233488     3.920348
 H    -5.626863     1.208276     7.059425
 O    -6.399121     0.687752     7.380964
 H    -6.141472    -0.242164     7.266617
 H    -0.579694    -4.910131    -2.714582
 O    -0.754937    -4.838553    -3.670325
 H    -1.377248    -5.533776    -3.919529
 H     6.823165     0.282904     4.240090
 O     7.795183     0.457262     4.173500
 H     7.989737     0.383516     3.212489
 H     4.657702    -6.785993    -3.730322
 O     3.949742    -6.972089    -4.384182
 H     4.072183    -6.325043    -5.086775
 H    -6.022966    -1.953605    -4.971314
 O    -6.750411    -2.636368    -5.001922
 H    -7.571428    -2.132263    -5.290171
 H    -7.512480     0.965946     6.179965
 O    -8.082623     1.285965     5.435863
 H    -8.677114     1.934184     5.817045
 H    -5.068642     5.916629     2.259002
 O    -5.295785     6.824933     1.972990
 H    -4.431659     7.284112     1.924923
 H     5.752931     1.425554    -4.113135
 O     5.968803     0.623443    -4.637181
 H     5.461822     0.699373    -5.448021
 H    -5.732329     6.584793     0.334580
 O    -5.780638     6.333282    -0.611318
 H    -4.893518     6.544185    -0.971618
 H    -0.411247    -7.500061    -2.877229
 O    -1.102480    -7.596713    -2.211845
 H    -0.695474    -7.923531    -1.400772
 H    -2.422623    -1.373581     5.653790
 O    -1.778311    -2.105614     5.805855
 H    -0.934302    -1.645936     5.973939
 H     7.447437    -4.627912    -1.512910
 O     7.546977    -4.648186    -2.488956
 H     6.775050    -4.167096    -2.834128
 H    -8.917111    -2.860201    -2.952318
 O    -7.996180    -2.788183    -2.619228
 H    -7.448256    -2.651438    -3.416037
 H     8.744034    -3.496998    -2.930336
 O     9.383264    -2.789185    -3.158108
 H     8.897466    -1.948685    -3.077609
 H    -5.119359    -5.061246    -3.307209
 O    -5.106022    -4.085580    -3.215914
 H    -5.793557    -3.780293    -3.826563
 H    -3.632450     3.991598    -3.533622
 O    -3.321441     4.852303    -3.207760
 H    -3.613580     5.534910    -3.812963
 H    -0.228030     4.657441    -4.137999
 O    -0.889623     3.980707    -3.909750
 H    -1.661015     4.446937    -3.528316
 H    -1.881983    -3.870255     5.554469
 O    -2.194092    -4.736418     5.248891
 H    -3.129050    -4.584502     5.024969
 H    -2.324641     8.336069    -3.911411
 O    -2.544735     7.384948    -3.984153
 H    -2.369006     7.117118    -4.912915
 H    -2.787208     7.475759     3.114454
 O    -2.729054     7.642237     2.158644
 H    -2.149264     6.931686     1.816126
 H     4.934830     1.626705     4.090937
 O     4.790907     2.578483     3.897508
 H     5.665473     2.918364     3.629637
 H     7.993526    -1.679125     6.190848
 O     8.415692    -1.910223     5.340382
 H     8.376038    -1.076816     4.830772
 H     6.171073    -1.354963     7.731602
 O     6.875881    -0.855462     7.307505
 H     6.420351    -0.109534     6.856942
 H    -1.753737     5.506023    -6.555520
 O    -1.869753     6.454415    -6.390905
 H    -0.994367     6.862184    -6.516349
 H    -8.093679     0.078306     4.152817
 O    -7.932837    -0.484340     3.382442
 H    -7.032102    -0.842837     3.476332
 H    -8.486973     0.300077     0.397846
 O    -8.492553     0.962513     1.109431
 H    -8.458688     0.441342     1.929529
 H     0.963148    -0.358741     5.946823
 O     0.139565    -0.403285     6.486563
 H    -0.358069     0.367480     6.162343
 H    -0.368298     6.987960    -1.822828
 O    -0.348176     6.575305    -2.709577
 H    -1.209045     6.772440    -3.143061
 H     0.496080    -7.991392     0.862446
 O    -0.417923    -8.232392     0.647640
 H    -0.853773    -8.259746     1.527209
 H     2.178414     2.815275     5.160051
 O     2.165569     2.505034     4.229858
 H     3.101535     2.505410     3.958485
 H    -8.138760    -5.588490    -5.250857
 O    -7.243944    -5.437922    -5.605601
 H    -7.099945    -4.484105    -5.461936
 H     2.971681    -7.570091     1.281154
 O     2.090037    -7.191235     1.242223
 H     1.993423    -6.884143     0.304125
 H     3.288089     5.423731    -7.609559
 O     3.423533     4.456595    -7.703815
 H     2.592015     4.027649    -7.448579
 H    -0.379291     7.019825     0.347170
 O    -0.073750     7.701750    -0.274633
 H    -0.737620     8.404803    -0.232138
 H     4.613521     3.760273     5.063677
 O     4.552221     4.432565     5.784625
 H     5.441843     4.492048     6.142837
 H     7.838246     2.907568     6.612458
 O     7.322068     3.751955     6.520103
 H     7.828934     4.419674     6.980742
 H     3.930333    -8.077510    -0.810362
 O     4.470347    -7.532813    -0.214454
 H     4.910883    -6.911858    -0.816989
 H     6.592075    -6.115782    -2.578755
 O     5.815653    -6.700341    -2.496540
 H     6.140307    -7.614277    -2.405649
 H    -8.948176    -1.860019     3.282572
 O    -9.451217    -2.677591     3.083514
 H    -10.191972    -2.379061     2.528571
 H    -2.502054     8.834969     0.822570
 O    -2.372146     9.161773    -0.083290
 H    -3.163491     9.729498    -0.256399
 H     8.266722     0.769340     7.218179
 O     8.608410     1.442223     6.619344
 H     8.436884     1.089848     5.728891
 H    -2.120715     5.408986     7.586765
 O    -1.853275     5.594550     6.687739
 H    -2.068913     4.774054     6.151052
 H    -6.523795    -6.462310    -2.894713
 O    -5.851489    -6.792391    -3.524302
 H    -6.235713    -6.500058    -4.374897
 H     6.811031    -2.797238     2.684012
 O     6.919986    -2.569156     1.741844
 H     7.861866    -2.666945     1.539568
 H     2.433564     6.656604    -1.048047
 O     2.711787     7.411133    -0.481761
 H     1.879624     7.771831    -0.151539
 H    -4.347537    -7.337878    -2.528330
 O    -3.772054    -7.369131    -1.755181
 H    -2.869839    -7.518131    -2.090042
 H     0.892057     6.529446    -5.816486
 O     0.725408     7.390253    -6.266678
 H     0.766669     8.045886    -5.540006
 H    -8.321083    -1.527012    -1.396505
 O    -8.588904    -1.219510    -0.514775
 H    -8.360447    -1.994027     0.046119
 H    -3.184048     7.117200    -2.309693
 O    -3.265351     6.970370    -1.357697
 H    -2.941259     7.782992    -0.915918
 H     2.808096    -4.515853     2.457965
 O     1.887918    -4.843250     2.493278
 H     1.922214    -5.746681     2.116736
 H    -8.968919    -0.670442    -4.830775
 O    -8.910488    -1.293330    -5.597187
 H    -8.616261    -0.726597    -6.340962
 H     7.475729    -0.277780    -4.005121
 O     8.134499    -0.302716    -3.291923
 H     8.814218     0.345415    -3.524878
 H     4.338233     6.616932    -0.335747
 O     5.032880     5.964513    -0.520653
 H     4.555859     5.127790    -0.717280
 H    -7.993085     0.200238    -3.034097
 O    -8.896740     0.229888    -3.410853
 H    -9.488441     0.014857    -2.687990
 H     6.132154     3.609289    -3.474861
 O     5.651341     2.842198    -3.112840
 H     6.244542     2.430088    -2.440839
 H    -1.430017    -6.871997     0.394482
 O    -2.035347    -6.125745     0.208172
 H    -2.649566    -6.441251    -0.461662
 H    -4.050305    -7.673397     1.370970
 O    -4.252018    -7.386687     2.264699
 H    -4.022497    -6.426919     2.293420
 H    -2.909536    -4.982634     1.437643
 O    -3.604910    -4.833572     2.098642
 H    -3.298597    -4.100867     2.670645
 H     5.266391    -6.116981     4.955694
 O     4.505640    -5.878280     4.422725
 H     4.781889    -6.004332     3.499502
 H    -9.724876    -6.142319    -3.459696
 O    -9.748904    -5.715958    -4.347003
 H    -10.413156    -6.191343    -4.846191
 H     6.223506    -5.715342     1.313953
 O     5.712858    -6.277635     1.932254
 H     5.235889    -6.880202     1.349314
 H    -1.412429    -6.621984     2.862149
 O    -1.568081    -7.577483     2.950576
 H    -2.530504    -7.684627     2.965189
 H    -10.206198    -3.989220    -4.101536
 O    -10.327896    -3.056622    -3.857627
 H    -10.093746    -2.527494    -4.631821
 H     0.542260     7.851809    -3.476244
 O     0.868784     8.667127    -3.911458
 H     1.778538     8.804031    -3.574514
 H    -9.263785    -7.856167    -2.028227
 O    -9.842437    -7.092370    -2.043412
 H    -9.697120    -6.629916    -1.198017
 H     2.195113     0.779252     4.558146
 O     2.286802    -0.057434     5.052596
 H     2.473300    -0.762851     4.397486
 H    -6.722890     0.174743    -7.663218
 O    -7.691214     0.046094    -7.739913
 H    -8.027908     0.879032    -8.086352
 H     6.172473     3.556112    -7.478848
 O     5.596309     3.527292    -6.715036
 H     4.752160     3.990702    -7.007595
 H    -5.142310     10.406358     0.455026
 O    -4.667210     10.391120    -0.386581
 H    -5.272641     9.897316    -0.974304
 H    -0.910822    -1.271657    -5.645072
 O    -1.067779    -0.638491    -6.378705
 H    -0.272159    -0.072265    -6.357428
 H     4.619056    -0.739634    -6.963476
 O     4.691452    -1.666888    -6.712711
 H     5.544581    -1.765714    -6.254214
 H     2.345540    -8.954095    -2.328565
 O     3.303408    -8.900292    -2.345300
 H     3.526147    -8.342414    -3.105205
 H    -4.251144    -0.437680    -7.861494
 O    -4.897652     0.184612    -7.457448
 H    -4.304742     0.906192    -7.154425
 H     1.545522     3.946250     6.568128
 O     2.285901     3.346368     6.784279
 H     3.104998     3.851957     6.629282
 H    -11.361400    -2.432715     0.365236
 O    -10.924690    -1.784697     0.918377
 H    -10.194230    -1.423976     0.384345
 H    -7.219661     2.398203     7.717435
 O    -7.680341     3.243442     7.615217
 H    -7.775729     3.611947     8.492917
 H     6.035960    -9.176732    -0.915220
 O     6.098702    -9.329099    -1.863162
 H     5.204069    -9.549828    -2.151146
 H     6.689970     5.103955    -1.036621
 O     7.313141     4.419942    -1.302797
 H     7.510099     3.911977    -0.489353
 H    -5.282549    -2.542393     6.088055
 O    -5.272402    -1.758871     6.681115
 H    -4.635951    -1.998961     7.376609
 H     2.792632     1.706596     7.422615
 O     3.245244     0.853673     7.356535
 H     2.902050     0.444157     6.534506
 H    -2.598194    -2.543933     7.248928
 O    -3.071138    -2.640357     8.103711
 H    -2.432108    -2.299742     8.746401
 H     5.952559     2.181288     6.539368
 O     5.646312     1.303505     6.304472
 H     4.766269     1.181290     6.718672
 H     2.006502    -4.229423     4.289498
 O     2.506864    -4.145880     5.114074
 H     3.192271    -4.833260     5.041561
 H     10.365914    -2.943504    -1.841570
 O     10.878359    -2.930729    -0.987984
 H     11.803485    -2.926364    -1.227598
 H     3.975742     8.125911    -3.180168
 O     3.313463     8.725048    -2.814147
 H     3.149980     8.408167    -1.906994
 H    -8.238277    -6.293722     0.813089
 O    -8.890616    -5.882910     0.223030
 H    -8.814213    -4.924876     0.454719
 H    -0.620439     9.583792    -3.519644
 O    -1.551526     9.773533    -3.296772
 H    -1.598202     9.925117    -2.350293
 H     4.130427     3.826012    -3.916069
 O     3.591248     4.621492    -3.957874
 H     4.168959     5.393424    -3.784027
 H     5.256232     6.447771    -2.223435
 O     5.172199     6.625503    -3.180572
 H     5.939540     6.239763    -3.622400
 H    -0.170208     5.416595     5.973883
 O     0.533845     4.912105     5.542300
 H     1.229582     5.533106     5.218028
 H     3.402006     5.704090     4.955791
 O     2.638856     6.144351     4.552955
 H     2.563223     5.782625     3.655709
 H    -7.020353     9.106587    -0.287357
 O    -6.750247     8.847716    -1.178197
 H    -6.532830     7.900395    -1.121520
 H    -1.300375    -4.864250     3.839684
 O    -0.867658    -4.811457     2.957024
 H     0.048050    -5.088404     3.046028
 H     4.335789    -1.978671     6.294167
 O     4.314888    -2.166434     5.331246
 H     3.587231    -2.807092     5.194746
 H     7.089280    -6.152006     3.316464
 O     7.487618    -5.765764     4.106559
 H     7.029942    -4.914057     4.237575
 H     9.045021    -4.824735     3.974322
 O     9.686903    -4.110633     3.800858
 H     9.443486    -3.384665     4.388375
 H     3.045750     7.615758    -8.315926
 O     3.056459     7.105800    -7.507274
 H     2.195464     7.286463    -7.057090
 H    -0.440395    -1.002668     8.225505
 O    -0.643899    -1.609497     8.951051
 H     0.054502    -2.269900     8.933957
 H     8.408612     4.282287    -2.512107
 O     9.072456     4.269955    -3.249215
 H     9.811857     4.784580    -2.925519
 H     6.375146     4.416171    -5.385094
 O     6.720257     4.835772    -4.574949
 H     7.666092     4.664733    -4.501192
 H     10.618915     1.851079    -4.386233
 O     9.893327     1.775822    -3.768418
 H     9.530234     2.679012    -3.628494
 H     3.279379    -2.180693     7.975120
 O     4.120049    -1.683731     7.944177
 H     3.859070    -0.751475     7.994078
 H    -2.351658    -0.790753    -9.077356
 O    -2.749771    -1.350305    -8.399596
 H    -2.172957    -1.195950    -7.618645
 H     5.234030     5.377400     1.317596
 O     5.034610     4.851768     2.102557
 H     4.067912     4.897060     2.219768
 H    -2.776813    -6.895359    -5.287962
 O    -2.865463    -6.137250    -4.704586
 H    -2.854269    -5.337371    -5.288803
 H    -6.352191     6.462971     4.899203
 O    -5.909116     7.269636     4.577183
 H    -5.797322     7.149551     3.607942
 H    -7.253266     4.491249     6.206121
 O    -7.002658     4.887631     5.362232
 H    -6.780732     4.135999     4.788901
 H    -7.042921     9.712490     2.327488
 O    -6.811002     10.069320     1.445661
 H    -7.267739     10.908228     1.374672
 H    -6.015213    -6.765389     2.138845
 O    -6.627042    -6.140026     1.720647
 H    -6.098412    -5.732364     1.001147
 H    -3.672447    -4.351295     7.937613
 O    -3.928020    -5.206822     7.548278
 H    -3.152015    -5.508192     7.061713
 H     9.567945     0.666789    -0.705486
 O     9.628737     1.614456    -0.924832
 H     9.919620     1.645093    -1.842271
 H    -7.937535    -3.936618     3.640137
 O    -7.016364    -4.216584     3.635417
 H    -6.913369    -4.883872     2.926782
 H     1.181552    -2.053411     7.030536
 O     1.677710    -2.788044     7.407714
 H     1.865504    -3.390225     6.670746
 H    -2.014489    -3.627378    -6.588948
 O    -2.774467    -3.763613    -6.014824
 H    -3.575707    -3.676537    -6.608086
 H    -8.465931     8.668855     3.803755
 O    -7.665338     9.191275     3.871548
 H    -6.989201     8.599096     4.263407
 H     7.898098    -2.408996    -5.184948
 O     6.976940    -2.144146    -5.199839
 H     6.511720    -2.757161    -4.599689
 H    -4.828749    -4.605514     6.127982
 O    -4.880399    -4.049469     5.326247
 H    -5.658517    -4.304410     4.809607
 N    -5.092119    -3.669030    -7.498324
 H    -5.519213    -4.579771    -7.647481
 H    -4.970869    -3.235992    -8.407576
 H    -5.773874    -3.116285    -6.980651
