604
grain_mol22 // -1645.759665132593 // -45.0689857981 // -668.043011340693 // -1022.78563959 // -0.039968984 // -0.583433375239 // -0.01077547839
 H    -1.807635    -0.130816     2.483705
 O    -0.832216    -0.058201     2.565117
 H    -0.516622    -0.937840     2.880570
 H    -0.357162    -1.799734    -2.870717
 O    -0.429176    -1.825285    -1.903946
 H    -1.380181    -1.781289    -1.709447
 H    -2.855013     1.738235     0.879932
 O    -2.729712     1.107816     0.150920
 H    -1.958259     1.430737    -0.348902
 H    -3.855325     1.830037    -2.989939
 O    -3.357635     2.206011    -3.753386
 H    -2.460354     2.375290    -3.447923
 H    -0.115587    -0.575274    -0.797830
 O    -0.021017     0.153852    -0.154377
 H    -0.436753    -0.158793     0.659826
 H     0.995873    -1.786673    -4.799322
 O     0.067195    -2.010702    -4.623507
 H     0.017276    -2.977769    -4.666311
 H    -5.076827     2.234165    -1.241877
 O    -4.673722     1.428710    -1.620288
 H    -3.986200     1.175359    -0.959607
 H    -3.729238     3.232075     2.537288
 O    -2.979750     2.647975     2.311902
 H    -2.223723     3.022330     2.800288
 H     2.503628     0.451765    -2.929208
 O     1.928550    -0.211138    -2.495469
 H     1.011986     0.057643    -2.699124
 H    -1.188671     0.349467    -3.584197
 O    -0.404973     0.863580    -3.298270
 H    -0.679833     1.443181    -2.568870
 H     2.662507    -0.418562     0.572449
 O     2.606505    -1.164140    -0.059901
 H     2.321974    -0.788716    -0.915059
 H    -2.862003    -0.544546    -0.584024
 O    -2.979089    -1.003949    -1.426069
 H    -3.757282    -1.586252    -1.354206
 H     2.726798     1.432193    -0.782079
 O     1.885933     1.907679    -0.660620
 H     1.200095     1.227309    -0.491584
 H     0.391278     3.280018    -3.200953
 O     1.317039     3.135393    -2.964813
 H     1.340052     2.668137    -2.109956
 H     0.262102    -3.929443    -0.571588
 O     0.059129    -4.618938    -1.242554
 H    -0.700757    -5.112280    -0.857747
 H    -6.365745     1.884812     3.045596
 O    -6.431995     2.077413     4.017621
 H    -7.158412     1.514969     4.351449
 H     1.267836    -3.632835     1.282567
 O     0.825914    -2.997811     0.689850
 H     1.477259    -2.311160     0.441088
 H    -3.157225     5.147683    -0.944157
 O    -2.941629     4.355676    -0.416710
 H    -3.812693     3.948885    -0.226597
 H    -5.481743    -1.474929     1.685595
 O    -5.237406    -0.822582     0.994885
 H    -5.324804    -1.280972     0.153678
 H    -0.235757    -3.190147     3.027142
 O     0.039017    -2.369099     3.470050
 H     0.977658    -2.228468     3.264369
 H     5.164268     1.311503    -1.145441
 O     4.402436     0.746978    -0.951726
 H     4.648909     0.337896    -0.092416
 H     0.593341     2.464375     1.081504
 O     0.601673     2.120288     1.984008
 H     0.023784     1.336645     2.029653
 H     4.431257    -0.242325    -2.320815
 O     4.654929    -0.715580    -3.153902
 H     5.106788    -0.047219    -3.709957
 H     2.871538     3.442387    -0.960341
 O     3.732544     3.880439    -0.935572
 H     4.227966     3.615142    -1.733975
 H    -5.842725    -1.690881    -1.901530
 O    -5.283483    -2.369627    -1.465189
 H    -5.166846    -3.078363    -2.121459
 H    -4.769005    -4.234392     1.222214
 O    -5.483216    -3.631220     0.943187
 H    -5.264989    -3.333372     0.049824
 H     2.583258     2.336441    -3.636214
 O     3.286399     1.687720    -3.845650
 H     3.357235     1.657855    -4.805388
 H    -5.350602     3.647691     3.777132
 O    -4.804764     4.262764     3.275862
 H    -4.301484     4.813547     3.912922
 H     0.561510     1.111715    -4.710541
 O     1.057708     1.023438    -5.550242
 H     1.693867     0.294466    -5.396228
 H     0.748451     5.890490    -2.232275
 O     1.554894     5.595084    -1.775932
 H     2.126477     5.175670    -2.449170
 H    -2.671623    -3.539169    -1.806906
 O    -2.811316    -3.800347    -0.880808
 H    -3.547521    -4.427719    -0.856100
 H     1.825814     5.330050    -4.488143
 O     0.947555     5.384454    -4.903203
 H     0.965062     4.691946    -5.590966
 H     7.650389     2.225235    -0.882076
 O     6.878390     1.832418    -1.328895
 H     7.266469     1.169381    -1.935307
 H     4.348471     3.011854     0.373699
 O     4.698690     2.663062     1.218729
 H     4.593695     3.404547     1.850645
 H     1.166427    -3.070164    -2.197988
 O     2.016263    -2.874184    -2.618791
 H     2.060154    -1.895503    -2.641866
 H     0.954497     4.701569    -0.548714
 O     0.518064     4.206701     0.181317
 H    -0.186049     4.783579     0.527931
 H    -5.814005     0.778724     1.258618
 O    -6.334833     1.583503     1.454208
 H    -7.256519     1.308188     1.215416
 H    -2.192921    -2.698113     0.246714
 O    -1.740357    -2.111422     0.882832
 H    -0.817857    -2.416007     0.877558
 H    -3.691052    -0.510180     4.275909
 O    -3.677473    -0.649789     5.250373
 H    -4.405520    -1.262624     5.501622
 H    -5.965905    -3.121367     3.202972
 O    -5.559103    -2.244179     3.298282
 H    -4.597517    -2.429435     3.293798
 H    -2.873964    -0.461919    -2.995754
 O    -2.609080    -0.508353    -3.941478
 H    -2.410600    -1.467743    -4.025960
 H    -3.327736    -3.473197    -3.744344
 O    -2.485220    -3.056550    -3.497436
 H    -1.766274    -3.660732    -3.770850
 H     3.233840    -0.947594    -4.272042
 O     2.686798    -1.083052    -5.069072
 H     3.325442    -1.219223    -5.787465
 H     4.534998     2.637244    -6.592004
 O     4.041241     1.792175    -6.612162
 H     3.194104     1.992980    -7.018557
 H    -4.250518     0.756898     5.798819
 O    -4.767393     1.559058     6.067623
 H    -5.341668     1.763611     5.302033
 H    -3.973587    -0.253588     2.007999
 O    -3.448503     0.076816     2.757016
 H    -3.408295     1.051822     2.683726
 H    -5.852233     0.381048    -2.232107
 O    -6.366098    -0.302077    -2.710272
 H    -5.935275    -0.371583    -3.584166
 H     2.018637    -3.660379    -4.164931
 O     1.979089    -4.112220    -5.030135
 H     1.625372    -4.997450    -4.841363
 H     4.587565    -3.324526    -0.690854
 O     4.842431    -2.571025    -0.109711
 H     4.054563    -1.977283    -0.104728
 H    -0.407571     3.054804    -0.859083
 O    -1.139413     2.651262    -1.355148
 H    -1.881845     3.275817    -1.218326
 H     1.542118     4.488586     1.615252
 O     1.992089     4.633499     2.467715
 H     1.835219     3.831781     2.990738
 H     3.618991     1.356843     1.659235
 O     2.875538     0.742425     1.814374
 H     2.077387     1.290262     1.946961
 H     3.278634    -3.760141    -2.128620
 O     4.006520    -4.350956    -1.816609
 H     4.680534    -4.344090    -2.513195
 H     5.098596    -3.477293    -4.568999
 O     5.519079    -3.148779    -3.736373
 H     5.070600    -2.317001    -3.483308
 H    -1.323725     5.017824     2.181327
 O    -1.526897     5.572612     1.392312
 H    -2.140734     5.055424     0.809495
 H    -5.850542     2.958939     0.525967
 O    -5.421738     3.488985    -0.172814
 H    -5.910472     4.325478    -0.316191
 H     5.155035    -3.626823     2.876338
 O     4.395699    -3.481730     2.306047
 H     4.712117    -3.166328     1.429323
 H     5.861641    -1.018645     1.322943
 O     5.425142    -0.144130     1.325396
 H     6.182299     0.470962     1.378098
 H     1.860869    -6.537367    -3.126905
 O     1.687096    -6.741331    -4.070825
 H     2.567576    -6.785557    -4.474923
 H    -7.071945    -3.902359     0.747437
 O    -8.039424    -3.936649     0.547165
 H    -8.505768    -3.775529     1.396120
 H     3.306994    -2.283293     2.768189
 O     2.595577    -1.646127     2.967331
 H     2.780206    -0.826231     2.474520
 H    -2.056696     2.570464     5.138156
 O    -2.800813     3.180721     5.295191
 H    -3.518612     2.640203     5.676344
 H    -0.878423     0.854028     4.008749
 O    -0.780166     1.401070     4.820404
 H     0.037975     1.892830     4.691294
 H     0.075735     3.574978    -6.878775
 O     1.038270     3.417550    -6.760332
 H     1.092221     2.562318    -6.292832
 H     7.240222    -2.558338     4.664953
 O     6.507468    -3.040462     4.212483
 H     5.685519    -2.726941     4.660950
 H     7.890904     1.854653     1.409185
 O     7.849818     0.919568     1.686175
 H     8.358633     0.395836     1.040076
 H    -4.098871    -0.575644    -4.658672
 O    -5.025616    -0.651802    -4.993234
 H    -5.030864    -0.266686    -5.890861
 H     6.464822    -1.066888    -2.198259
 O     6.895030    -1.514922    -1.464537
 H     6.176186    -1.824638    -0.881349
 H     4.709969    -0.637821     4.419248
 O     5.090474     0.128265     3.957784
 H     5.041221    -0.025825     2.990389
 H    -0.189345     3.306971     2.929361
 O    -0.844771     3.929732     3.302951
 H    -0.545361     4.191251     4.195075
 H     8.253037    -0.798512    -0.747017
 O     9.025454    -0.399734    -0.288216
 H     9.752720    -1.030085    -0.381454
 H     9.756823    -3.339961     2.091530
 O     9.449373    -3.120931     1.181076
 H     10.230670    -2.929221     0.641655
 H    -2.308663    -2.709664     3.821658
 O    -2.929448    -2.814130     3.090846
 H    -2.489789    -2.456940     2.278404
 H    -2.235091     0.799237    -6.260260
 O    -2.895301     1.519553    -6.289811
 H    -3.154721     1.679899    -5.358648
 H    -1.440703     3.893091    -5.453191
 O    -1.563000     3.865224    -6.430617
 H    -2.119117     3.080151    -6.582642
 H    -4.355719    -6.378063    -1.222123
 O    -4.860448    -5.657570    -0.815621
 H    -5.636633    -5.509943    -1.397674
 H     2.898330    -5.609548    -1.564397
 O     2.111598    -6.186077    -1.490834
 H     1.324633    -5.589035    -1.373153
 H     3.430495    -3.987722    -5.699999
 O     4.389194    -3.929055    -5.966967
 H     4.466099    -3.182569    -6.566988
 H     7.294176     3.811976     2.085278
 O     7.226058     3.460037     1.188728
 H     6.310433     3.090654     1.133504
 H     6.749310    -3.532438     0.262833
 O     7.309066    -4.303380     0.051709
 H     8.171188    -4.026786     0.448483
 H    -7.329945    -4.675541    -2.505819
 O    -7.059659    -5.596754    -2.295311
 H    -7.666519    -5.903842    -1.594913
 H    -4.701900     6.563437     5.014640
 O    -3.801577     6.270771     4.777335
 H    -3.308832     6.076183     5.589136
 H     7.082495     3.860585     4.855301
 O     7.097558     3.469531     3.971909
 H     7.391931     2.547562     4.097413
 H    -5.852350     0.596806     6.957629
 O    -6.596603     0.017917     7.243376
 H    -6.280994    -0.889322     7.096796
 H    -0.290111    -4.793976    -2.964152
 O    -0.467647    -4.690482    -3.916646
 H    -1.023945    -5.427884    -4.198723
 H     6.672622     0.538080     4.322769
 O     7.633826     0.770846     4.280546
 H     7.846213     0.752127     3.320650
 H     5.040753    -6.311343    -3.983247
 O     4.355554    -6.509779    -4.659201
 H     4.457976    -5.828402    -5.330983
 H    -5.864167    -2.033391    -5.260338
 O    -6.445698    -2.822603    -5.379949
 H    -7.317119    -2.437080    -5.655756
 H    -7.706204     0.278130     6.035512
 O    -8.283320     0.593569     5.294706
 H    -8.922049     1.188342     5.691224
 H    -5.507940     5.525151     2.362665
 O    -5.785633     6.428941     2.108917
 H    -4.950522     6.941136     2.095106
 H     5.660487     1.960045    -3.995804
 O     5.933816     1.194808    -4.547081
 H     5.435409     1.271886    -5.363141
 H    -6.182023     6.231232     0.455205
 O    -6.200058     6.015457    -0.500622
 H    -5.322462     6.295646    -0.836458
 H     0.033829    -7.364442    -3.229739
 O    -0.659817    -7.526482    -2.579336
 H    -0.244588    -7.864943    -1.777409
 H    -2.475901    -1.726984     5.505680
 O    -1.790709    -2.424661     5.639235
 H    -0.978775    -1.922571     5.840496
 H     7.654481    -4.030222    -1.655051
 O     7.813901    -4.039561    -2.629470
 H     7.014606    -3.602975    -2.987594
 H    -8.724833    -3.235562    -3.305991
 O    -7.807586    -3.116316    -2.968543
 H    -7.272986    -2.895017    -3.746326
 H     8.932335    -2.804819    -2.965303
 O     9.534885    -2.050282    -3.141228
 H     8.994021    -1.245942    -3.043197
 H    -4.898903    -5.094773    -3.633988
 O    -4.906960    -4.132525    -3.494230
 H    -5.444784    -3.756197    -4.201737
 H    -3.870617     3.932615    -3.478477
 O    -3.618506     4.795206    -3.110448
 H    -3.938617     5.485297    -3.692680
 H    -0.502805     4.823494    -3.994947
 O    -1.126883     4.100716    -3.804324
 H    -1.929143     4.505745    -3.417334
 H    -1.783475    -4.180289     5.315294
 O    -2.037749    -5.050363     4.969929
 H    -2.976535    -4.945903     4.735406
 H    -2.823410     8.358279    -3.655667
 O    -2.984234     7.399430    -3.770846
 H    -2.777646     7.181862    -4.706542
 H    -3.338789     7.181714     3.320402
 O    -3.276675     7.390513     2.373196
 H    -2.649218     6.731285     2.012617
 H     4.708729     1.771522     4.194869
 O     4.510152     2.720031     4.037800
 H     5.366032     3.123036     3.798821
 H     7.931161    -1.429762     6.211721
 O     8.378867    -1.599906     5.359700
 H     8.295734    -0.749004     4.884740
 H     6.068797    -1.278461     7.733173
 O     6.748681    -0.722191     7.340131
 H     6.255772     0.014332     6.913793
 H    -2.040805     5.680678    -6.402359
 O    -2.217291     6.612285    -6.199689
 H    -1.366929     7.077317    -6.294464
 H    -8.201902    -0.557969     3.963973
 O    -7.995427    -1.077386     3.174232
 H    -7.076127    -1.384791     3.269888
 H    -8.550188    -0.207368     0.214727
 O    -8.607445     0.423530     0.951493
 H    -8.553883    -0.126775     1.751437
 H     0.837335    -0.523814     5.898809
 O     0.010056    -0.640075     6.421862
 H    -0.528658     0.112112     6.120417
 H    -0.820121     7.045147    -1.589596
 O    -0.762088     6.670620    -2.491445
 H    -1.626153     6.834854    -2.932153
 H     0.910715    -7.953456     0.498396
 O     0.014129    -8.238294     0.263751
 H    -0.427691    -8.330526     1.135213
 H     1.869176     2.747279     5.262681
 O     1.889294     2.475154     4.320733
 H     2.827361     2.543432     4.065833
 H    -7.771480    -5.758297    -5.553381
 O    -6.883461    -5.572464    -5.900205
 H    -6.772469    -4.614784    -5.837062
 H     3.340409    -7.406304     0.986620
 O     2.440961    -7.074284     0.944938
 H     2.348539    -6.737588     0.015209
 H     3.011358     5.944049    -7.369938
 O     3.207132     4.991537    -7.500083
 H     2.399465     4.502787    -7.278012
 H    -0.865787     6.986478     0.579663
 O    -0.592989     7.710477    -0.008828
 H    -1.298777     8.370165     0.050317
 H     4.243592     3.840062     5.247420
 O     4.130692     4.476701     5.993928
 H     5.009559     4.575262     6.369577
 H     7.490814     3.119522     6.816867
 O     6.925493     3.934058     6.749426
 H     7.383247     4.611667     7.245711
 H     4.352661    -7.704202    -1.060872
 O     4.750223    -6.991263    -0.530438
 H     5.280456    -6.518062    -1.208900
 H     6.949493    -5.599611    -2.777739
 O     6.201103    -6.234585    -2.772381
 H     6.565118    -7.158232    -2.760675
 H    -8.923053    -2.507006     3.001218
 O    -9.371399    -3.344383     2.758403
 H    -10.122347    -3.067907     2.206021
 H    -3.102015     8.649543     1.090700
 O    -2.978724     9.020024     0.200897
 H    -3.800034     9.546519     0.037086
 H     8.038621     0.987502     7.343323
 O     8.348481     1.703196     6.777779
 H     8.211492     1.378337     5.871094
 H    -2.615781     4.975419     7.716187
 O    -2.346288     5.213469     6.830232
 H    -2.503800     4.404526     6.257194
 H    -6.052707    -6.609138    -3.367781
 O    -5.378280    -6.768868    -4.052877
 H    -5.833400    -6.496126    -4.878642
 H     6.871755    -2.467781     2.645674
 O     6.979154    -2.204530     1.712921
 H     7.928165    -2.219591     1.526099
 H     1.984603     6.850660    -0.779702
 O     2.208025     7.596105    -0.178208
 H     1.350638     7.892684     0.151259
 H    -3.907976    -7.458762    -2.935287
 O    -3.343210    -7.484299    -2.154383
 H    -2.429152    -7.562303    -2.482707
 H     0.525728     6.828658    -5.575793
 O     0.313782     7.695755    -5.993534
 H     0.304499     8.322286    -5.240653
 H    -8.242524    -1.941929    -1.657775
 O    -8.544051    -1.694102    -0.769881
 H    -8.278182    -2.475791    -0.234992
 H    -3.630608     7.025545    -2.119863
 O    -3.717815     6.834119    -1.176321
 H    -3.450308     7.645636    -0.696015
 H     2.982716    -4.416021     2.275551
 O     2.084337    -4.799296     2.284272
 H     2.178151    -5.681665     1.867522
 H    -8.840221    -1.057401    -5.009484
 O    -8.728382    -1.623480    -5.808615
 H    -8.471291    -1.006191    -6.516124
 H     7.482888     0.356772    -3.925733
 O     8.130398     0.347329    -3.201655
 H     8.772072     1.044269    -3.399205
 H     3.877313     6.895981    -0.036287
 O     4.612943     6.294337    -0.234434
 H     4.190477     5.439615    -0.473813
 H    -8.005755    -0.127815    -3.186725
 O    -8.904037    -0.147749    -3.576972
 H    -9.494083    -0.415517    -2.871064
 H     5.897188     4.134232    -3.262984
 O     5.458286     3.325798    -2.939579
 H     6.065536     2.922415    -2.275176
 H    -1.070174    -6.932616     0.047398
 O    -1.719071    -6.217861    -0.117593
 H    -2.299423    -6.542978    -0.812703
 H    -3.651071    -7.931659     0.944923
 O    -3.887859    -7.692924     1.844189
 H    -3.715357    -6.723693     1.915477
 H    -2.678390    -5.182875     1.139728
 O    -3.392738    -5.100427     1.792433
 H    -3.138654    -4.376261     2.399663
 H     5.496883    -5.970648     4.748991
 O     4.732860    -5.749588     4.213697
 H     5.020841    -5.831704     3.288837
 H    -9.338949    -6.546638    -3.920520
 O    -9.376300    -6.081077    -4.787563
 H    -9.996271    -6.575606    -5.323945
 H     6.501381    -5.417109     1.155289
 O     6.010807    -6.068763     1.707456
 H     5.470903    -6.532073     1.030892
 H    -1.107643    -6.784774     2.522547
 O    -1.206386    -7.750239     2.574699
 H    -2.160333    -7.916117     2.565357
 H    -9.940303    -4.400748    -4.483478
 O    -10.108882    -3.483478    -4.209382
 H    -9.902094    -2.918337    -4.966136
 H     0.061528     8.029613    -3.190440
 O     0.344003     8.880573    -3.586155
 H     1.238702     9.057908    -3.228407
 H    -8.794152    -8.286698    -2.552768
 O    -9.415409    -7.556971    -2.547043
 H    -9.313049    -7.124758    -1.679856
 H     2.018584     0.742658     4.579514
 O     2.154167    -0.106826     5.041099
 H     2.392104    -0.771890     4.360980
 H    -6.622498     0.196723    -7.571766
 O    -7.584057     0.240294    -7.441879
 H    -7.777259     1.132607    -7.151708
 H     6.001412     4.248682    -7.264122
 O     5.417090     4.154937    -6.511784
 H     4.550680     4.577989    -6.800523
 H    -5.827151     10.073341     0.740548
 O    -5.338847     10.121248    -0.092229
 H    -5.904175     9.617484    -0.710515
 H    -0.807441    -1.076491    -5.757437
 O    -1.001461    -0.422946    -6.464296
 H    -0.242431     0.188903    -6.409587
 H     4.704274    -0.149081    -6.950478
 O     4.828710    -1.079599    -6.735145
 H     5.679389    -1.146598    -6.266575
 H     2.874372    -8.670331    -2.675423
 O     3.826575    -8.557984    -2.642125
 H     4.049052    -7.978279    -3.384121
 H    -4.270629    -0.533436    -7.868053
 O    -4.811734     0.195106    -7.527216
 H    -4.160322     0.862989    -7.213279
 H     1.147499     3.778623     6.704069
 O     1.919682     3.215822     6.908481
 H     2.708646     3.775954     6.788837
 H    -11.254043    -3.101089     0.020898
 O    -10.864037    -2.452558     0.607311
 H    -10.150388    -2.025991     0.100835
 H    -7.524186     1.660548     7.635207
 O    -8.033699     2.480044     7.558436
 H    -8.165307     2.805775     8.448292
 H     7.082374    -8.843068    -1.573389
 O     6.815775    -8.831575    -2.530624
 H     5.908291    -9.167210    -2.549212
 H     6.326494     5.557448    -0.756249
 O     6.994199     4.923779    -1.038594
 H     7.209279     4.395282    -0.243197
 H    -5.265909    -3.083015     5.841820
 O    -5.312396    -2.325052     6.465625
 H    -4.673476    -2.554906     7.162341
 H     2.515705     1.584623     7.489085
 O     3.020457     0.764042     7.396169
 H     2.714631     0.369127     6.552535
 H    -2.604380    -2.970814     7.048815
 O    -3.083747    -3.130514     7.890400
 H    -2.476543    -2.779177     8.557672
 H     5.653785     2.284096     6.681090
 O     5.405548     1.399592     6.406207
 H     4.527937     1.208149     6.799005
 H     2.138485    -4.253383     4.104141
 O     2.619903    -4.173039     4.940466
 H     3.346028    -4.814841     4.853513
 H     10.495420    -2.211817    -1.820997
 O     10.994664    -2.214079    -0.957667
 H     11.919799    -2.127665    -1.181452
 H     3.466760     8.497049    -2.823484
 O     2.763825     9.039426    -2.444994
 H     2.606588     8.676192    -1.554323
 H    -7.907957    -6.783143     0.367180
 O    -8.573957    -6.386432    -0.217521
 H    -8.561131    -5.437087     0.057415
 H    -1.204108     9.689157    -3.184586
 O    -2.148266     9.812351    -2.970104
 H    -2.217787     9.922810    -2.019355
 H     3.892748     4.248181    -3.730496
 O     3.307012     5.010975    -3.747957
 H     3.834586     5.808273    -3.534003
 H     4.832527     6.860517    -1.913023
 O     4.751954     7.072290    -2.863408
 H     5.547696     6.752006    -3.307339
 H    -0.645010     5.166572     6.139647
 O     0.094738     4.723574     5.700302
 H     0.756272     5.398225     5.413794
 H     2.918102     5.710387     5.196883
 O     2.135616     6.119959     4.798869
 H     2.095873     5.792217     3.886403
 H    -7.611021     8.695288    -0.086769
 O    -7.312492     8.489540    -0.982407
 H    -7.039240     7.555513    -0.959993
 H    -1.115613    -5.066121     3.572491
 O    -0.674647    -4.948016     2.700468
 H     0.254257    -5.176219     2.791445
 H     4.297022    -1.951592     6.238924
 O     4.303746    -2.101987     5.269112
 H     3.616291    -2.776912     5.094000
 H     7.312106    -5.834331     3.219848
 O     7.722569    -5.446685     4.011276
 H     7.201561    -4.627131     4.153632
 H     9.206361    -4.406403     3.885487
 O     9.807046    -3.649749     3.755774
 H     9.510066    -2.964534     4.367483
 H     2.647479     8.144046    -7.991613
 O     2.676746     7.603554    -7.203486
 H     1.799445     7.713377    -6.762268
 H    -0.559050    -1.344457     8.124724
 O    -0.736377    -1.992063     8.821286
 H     0.001065    -2.607979     8.790139
 H     8.113931     4.902450    -2.233713
 O     8.788495     4.960041    -2.958706
 H     9.489899     5.505257    -2.602205
 H     6.119329     5.032700    -5.134361
 O     6.426298     5.437661    -4.301570
 H     7.379659     5.321349    -4.219144
 H     10.494780     2.687561    -4.166692
 O     9.768102     2.543882    -3.562363
 H     9.347796     3.416912    -3.393883
 H     3.229324    -2.285649     7.891996
 O     4.038842    -1.738430     7.895207
 H     3.720962    -0.826438     7.978922
 H    -2.388430    -1.995400    -8.763065
 O    -2.810472    -1.684754    -7.963033
 H    -2.125167    -1.202845    -7.451464
 H     4.821377     5.645072     1.581116
 O     4.642497     5.076175     2.340528
 H     3.673170     5.058781     2.442534
 H    -3.517358    -6.406985    -4.825045
 O    -2.734210    -5.857757    -4.903704
 H    -2.998824    -5.090027    -5.434716
 H    -6.862315     5.883393     4.999712
 O    -6.463926     6.727676     4.718362
 H    -6.330936     6.655054     3.747164
 H    -7.661830     3.808774     6.209483
 O    -7.422898     4.253914     5.386766
 H    -7.147128     3.541278     4.787709
 H    -7.710343     9.189486     2.549232
 O    -7.487190     9.595520     1.686646
 H    -7.992630     10.407892     1.641574
 H    -5.681562    -7.174974     1.711867
 O    -6.323766    -6.570268     1.308565
 H    -5.808753    -6.102055     0.616874
 H    -3.577613    -4.866325     7.644853
 O    -3.775176    -5.718396     7.216218
 H    -2.974773    -5.952832     6.732308
 H     9.463598     1.290284    -0.555498
 O     9.470482     2.248216    -0.733870
 H     9.771796     2.335665    -1.644331
 H    -7.794451    -4.531848     3.292612
 O    -6.857700    -4.754027     3.291849
 H    -6.703488    -5.385432     2.560017
 H     1.141477    -2.245632     6.917364
 O     1.676602    -2.963648     7.272706
 H     1.910406    -3.522853     6.515368
 H    -3.365583    -2.966097    -6.804158
 O    -3.749070    -3.613228    -6.194128
 H    -4.702800    -3.524303    -6.273155
 H    -9.089457     8.001920     3.957535
 O    -8.322943     8.568025     4.059696
 H    -7.618244     8.002159     4.439736
 H     8.049791    -1.695378    -5.186851
 O     7.116560    -1.477619    -5.200662
 H     6.676365    -2.145425    -4.640380
 H    -4.688194    -5.114185     5.806246
 O    -4.762121    -4.529563     5.026752
 H    -5.515090    -4.810074     4.486756
 N     7.791401    -8.587000     0.118838
 H     7.771168    -9.394789     0.734223
 H     7.321493    -7.826630     0.607610
 H     8.766913    -8.321111     0.018650
