604
grain_mol144 // -1859.825333793937 // -60.2944494502 // -897.332718444137 // -1022.7870648 // -0.0608504368 // -0.583994895234 // -0.017083954688
 H    -1.690949    -0.180134     2.531296
 O    -0.712476    -0.142102     2.595578
 H    -0.421289    -1.037923     2.888492
 H    -0.388137    -1.782607    -2.880939
 O    -0.445395    -1.828548    -1.913873
 H    -1.390840    -1.754797    -1.702489
 H    -2.701006     1.757360     0.983379
 O    -2.612278     1.140859     0.237148
 H    -1.835222     1.445024    -0.266258
 H    -3.692700     1.984733    -2.866277
 O    -3.260901     2.362727    -3.675684
 H    -2.342625     2.538104    -3.421240
 H    -0.070485    -0.611801    -0.787861
 O     0.057357     0.101079    -0.132249
 H    -0.351538    -0.215666     0.683875
 H     0.932179    -1.774721    -4.832357
 O    -0.000107    -1.971572    -4.643402
 H    -0.084735    -2.934833    -4.707083
 H    -4.896681     2.398873    -1.088332
 O    -4.566909     1.570306    -1.499934
 H    -3.896559     1.266318    -0.838533
 H    -3.494783     3.244851     2.687937
 O    -2.770234     2.640656     2.435599
 H    -1.993292     2.977916     2.918483
 H     2.546564     0.370161    -2.943284
 O     1.955865    -0.282376    -2.514574
 H     1.046142     0.023027    -2.695949
 H    -1.157215     0.406994    -3.536078
 O    -0.352562     0.889899    -3.253311
 H    -0.595966     1.462906    -2.507529
 H     2.734160    -0.577606     0.536803
 O     2.638200    -1.306767    -0.110001
 H     2.355573    -0.902791    -0.952612
 H    -2.809393    -0.495532    -0.523683
 O    -2.959385    -0.928053    -1.374708
 H    -3.752114    -1.490217    -1.300328
 H     2.839563     1.297871    -0.780215
 O     2.016903     1.798337    -0.635740
 H     1.311393     1.138174    -0.468255
 H     0.527667     3.273530    -3.119587
 O     1.451813     3.093558    -2.903166
 H     1.473779     2.607583    -2.058706
 H     0.198697    -3.982647    -0.637789
 O    -0.037566    -4.653093    -1.317914
 H    -0.809846    -5.125099    -0.930538
 H    -6.167580     1.976737     3.213795
 O    -6.211036     2.151125     4.190026
 H    -6.950086     1.606384     4.525826
 H     1.242092    -3.756342     1.204996
 O     0.812151    -3.096569     0.630596
 H     1.481685    -2.425370     0.387055
 H    -2.917018     5.214335    -0.763027
 O    -2.720397     4.403285    -0.257660
 H    -3.600908     4.022138    -0.060600
 H    -5.421186    -1.380665     1.770758
 O    -5.168471    -0.723206     1.087606
 H    -5.282641    -1.164380     0.240467
 H    -0.215090    -3.301312     2.983538
 O     0.093902    -2.498970     3.437634
 H     1.033839    -2.385757     3.220408
 H     5.264240     1.101600    -1.189484
 O     4.486931     0.558919    -0.994344
 H     4.734762     0.124121    -0.147662
 H     0.773899     2.361921     1.139934
 O     0.784439     1.999637     2.035245
 H     0.181934     1.234556     2.074865
 H     4.460059    -0.402062    -2.383173
 O     4.651448    -0.864159    -3.230812
 H     5.117624    -0.199544    -3.779784
 H     3.049507     3.304959    -0.921173
 O     3.924793     3.713830    -0.902436
 H     4.398435     3.448309    -1.713930
 H    -5.846293    -1.518313    -1.810436
 O    -5.303582    -2.225216    -1.398531
 H    -5.222393    -2.920843    -2.074006
 H    -4.811929    -4.153511     1.238562
 O    -5.509457    -3.520689     0.984425
 H    -5.296402    -3.212792     0.093025
 H     2.678938     2.266213    -3.612919
 O     3.354785     1.597674    -3.847884
 H     3.409823     1.587133    -4.809080
 H    -5.079841     3.689004     3.964066
 O    -4.522666     4.295614     3.464956
 H    -3.989738     4.815851     4.103849
 H     0.599175     1.133821    -4.676583
 O     1.078356     1.046707    -5.526113
 H     1.691208     0.293270    -5.398353
 H     0.990592     5.849724    -2.105516
 O     1.793514     5.517873    -1.668749
 H     2.340116     5.094048    -2.359871
 H    -2.743010    -3.465415    -1.813667
 O    -2.874163    -3.742645    -0.890911
 H    -3.632268    -4.343425    -0.865383
 H     2.008567     5.301239    -4.389839
 O     1.125131     5.392919    -4.787235
 H     1.108752     4.716095    -5.490719
 H     7.784225     1.925107    -0.950675
 O     6.991754     1.569093    -1.392832
 H     7.347327     0.904945    -2.017669
 H     4.532780     2.797326     0.378646
 O     4.883769     2.418483     1.210106
 H     4.816198     3.149409     1.859124
 H     1.101747    -3.116922    -2.260508
 O     1.951788    -2.943906    -2.690981
 H     2.029700    -1.966783    -2.696385
 H     1.183955     4.619349    -0.450266
 O     0.742199     4.124171     0.276427
 H     0.065343     4.717783     0.647780
 H    -5.683703     0.890292     1.395319
 O    -6.173368     1.708682     1.613924
 H    -7.107753     1.469057     1.387468
 H    -2.200949    -2.685674     0.248530
 O    -1.718517    -2.127009     0.887888
 H    -0.806984    -2.462186     0.861113
 H    -3.556190    -0.532981     4.347688
 O    -3.531089    -0.692882     5.318593
 H    -4.274828    -1.286412     5.570503
 H    -5.936560    -3.041889     3.260875
 O    -5.498666    -2.180850     3.365848
 H    -4.544154    -2.398680     3.342421
 H    -2.859454    -0.359185    -2.935271
 O    -2.610982    -0.389571    -3.885710
 H    -2.449131    -1.352583    -3.997690
 H    -3.429085    -3.334219    -3.738623
 O    -2.568495    -2.953242    -3.495797
 H    -1.876257    -3.574487    -3.796186
 H     3.206078    -1.023001    -4.327325
 O     2.641116    -1.125975    -5.116874
 H     3.262872    -1.265353    -5.849356
 H     4.589866     2.563028    -6.595767
 O     4.066902     1.735852    -6.624229
 H     3.220704     1.973983    -7.012001
 H    -4.045856     0.720164     5.906142
 O    -4.530607     1.533474     6.200275
 H    -5.110040     1.773508     5.449243
 H    -3.867693    -0.218342     2.089955
 O    -3.319487     0.078110     2.836437
 H    -3.246366     1.052499     2.782855
 H    -5.803092     0.541029    -2.067618
 O    -6.350430    -0.109101    -2.565216
 H    -5.932732    -0.133247    -3.460418
 H     1.900170    -3.694530    -4.253084
 O     1.833238    -4.127992    -5.126351
 H     1.441023    -4.999142    -4.952950
 H     4.541596    -3.518856    -0.814208
 O     4.823800    -2.782813    -0.227447
 H     4.055177    -2.165760    -0.197864
 H    -0.238509     3.026558    -0.769569
 O    -0.992046     2.657809    -1.260282
 H    -1.709728     3.304725    -1.100202
 H     1.800077     4.340642     1.698632
 O     2.267678     4.453257     2.546280
 H     2.093759     3.646106     3.055472
 H     3.769282     1.139949     1.642444
 O     3.006928     0.548691     1.796694
 H     2.231294     1.120873     1.955966
 H     3.190460    -3.882630    -2.237355
 O     3.902237    -4.511306    -1.962358
 H     4.568573    -4.483572    -2.666738
 H     4.975515    -3.605953    -4.709748
 O     5.416522    -3.316145    -3.873768
 H     5.009103    -2.469804    -3.598448
 H    -1.035534     4.955109     2.326235
 O    -1.233960     5.533271     1.552638
 H    -1.873988     5.049057     0.970421
 H    -5.657462     3.086773     0.707937
 O    -5.227935     3.613773     0.007105
 H    -5.683514     4.474326    -0.103019
 H     5.152805    -3.922977     2.728118
 O     4.388583    -3.731898     2.177921
 H     4.702881    -3.412725     1.302157
 H     5.922833    -1.299526     1.219149
 O     5.515901    -0.411087     1.245728
 H     6.295377     0.175690     1.298624
 H     1.661406    -6.584802    -3.273364
 O     1.465355    -6.772833    -4.216505
 H     2.333383    -6.825437    -4.642777
 H    -7.109333    -3.733248     0.810665
 O    -8.080832    -3.729068     0.627189
 H    -8.526741    -3.572271     1.487838
 H     3.351531    -2.508522     2.683615
 O     2.663776    -1.852768     2.905508
 H     2.870016    -1.029130     2.427809
 H    -1.802817     2.472732     5.243816
 O    -2.523613     3.103850     5.425537
 H    -3.252020     2.579842     5.809458
 H    -0.702707     0.741284     4.059179
 O    -0.573009     1.268028     4.879575
 H     0.259906     1.733502     4.747185
 H     0.160449     3.657314    -6.786026
 O     1.118987     3.465877    -6.685919
 H     1.151817     2.599124    -6.238304
 H     7.304754    -2.956834     4.501616
 O     6.546378    -3.399821     4.051544
 H     5.745101    -3.069404     4.523094
 H     8.051807     1.498262     1.326941
 O     7.981047     0.560115     1.585910
 H     8.461383     0.031263     0.921917
 H    -4.121034    -0.449668    -4.571173
 O    -5.060308    -0.489514    -4.876034
 H    -5.035816    -0.091948    -5.781395
 H     6.464331    -1.292983    -2.313047
 O     6.892279    -1.773514    -1.599150
 H     6.175318    -2.074780    -1.009467
 H     4.837811    -0.947539     4.341373
 O     5.234151    -0.184028     3.889084
 H     5.165863    -0.317274     2.919771
 H     0.051077     3.191917     3.018288
 O    -0.577057     3.827962     3.415815
 H    -0.253526     4.060927     4.307593
 H     8.286128    -1.120668    -0.886633
 O     9.078329    -0.753395    -0.435764
 H     9.782146    -1.407044    -0.547891
 H     9.730542    -3.786346     1.858808
 O     9.415974    -3.570752     0.954027
 H     10.169613    -3.379388     0.385162
 H    -2.257726    -2.767693     3.824491
 O    -2.893708    -2.835320     3.102324
 H    -2.455374    -2.476266     2.290162
 H    -2.200849     0.959242    -6.285082
 O    -2.840560     1.703018    -6.258813
 H    -3.075011     1.766774    -5.301722
 H    -1.320439     3.995385    -5.328584
 O    -1.459218     3.993218    -6.303386
 H    -2.043621     3.229938    -6.465248
 H    -4.513984    -6.256988    -1.257446
 O    -4.986286    -5.528201    -0.827668
 H    -5.766906    -5.342091    -1.392734
 H     2.753903    -5.719110    -1.718986
 O     1.955919    -6.279439    -1.637793
 H     1.187686    -5.662051    -1.490833
 H     3.274767    -4.038521    -5.820423
 O     4.230015    -4.011893    -6.103254
 H     4.325166    -3.254053    -6.686491
 H     7.532510     3.460271     2.054951
 O     7.436767     3.131809     1.152012
 H     6.509192     2.793031     1.105683
 H     6.724641    -3.803529     0.106057
 O     7.216248    -4.601398    -0.150966
 H     8.109068    -4.442984     0.214241
 H    -7.449520    -4.426254    -2.454365
 O    -7.206203    -5.359919    -2.266756
 H    -7.812391    -5.662089    -1.563727
 H    -4.311598     6.554325     5.248925
 O    -3.426454     6.235727     4.989226
 H    -2.926557     6.007868     5.788000
 H     7.369084     3.457889     4.828181
 O     7.354887     3.085667     3.936695
 H     7.620286     2.151657     4.037657
 H    -5.632987     0.589733     7.088943
 O    -6.392146     0.030482     7.374528
 H    -6.109796    -0.883681     7.204941
 H    -0.427166    -4.775731    -3.036165
 O    -0.612283    -4.649017    -3.984425
 H    -1.204647    -5.356194    -4.270961
 H     6.836885     0.164141     4.234869
 O     7.803935     0.367419     4.180436
 H     8.000205     0.358177     3.216959
 H     4.853745    -6.451562    -4.160561
 O     4.149887    -6.614838    -4.824821
 H     4.255885    -5.923728    -5.486974
 H    -5.926346    -1.836265    -5.185779
 O    -6.593236    -2.562734    -5.307929
 H    -7.436771    -2.058938    -5.521321
 H    -7.511542     0.353744     6.192520
 O    -8.089793     0.704402     5.468391
 H    -8.701323     1.311380     5.888637
 H    -5.196941     5.600008     2.591088
 O    -5.448128     6.517024     2.357869
 H    -4.596545     7.001502     2.341603
 H     5.735374     1.793477    -4.033391
 O     5.971508     1.030808    -4.605235
 H     5.463283     1.143607    -5.411010
 H    -5.878451     6.367926     0.709593
 O    -5.919471     6.170790    -0.249876
 H    -5.039116     6.430944    -0.595324
 H    -0.196023    -7.349719    -3.359877
 O    -0.882650    -7.502398    -2.700311
 H    -0.466519    -7.870731    -1.912094
 H    -2.362273    -1.815508     5.530917
 O    -1.699523    -2.538881     5.637010
 H    -0.867544    -2.069187     5.835270
 H     7.586980    -4.363438    -1.810170
 O     7.686736    -4.320519    -2.785391
 H     6.902442    -3.839360    -3.101318
 H    -8.806664    -2.922838    -3.202204
 O    -7.881365    -2.840689    -2.874816
 H    -7.351276    -2.626195    -3.658994
 H     8.853633    -3.113659    -3.153131
 O     9.474193    -2.376683    -3.335330
 H     8.966663    -1.555683    -3.204032
 H    -5.054217    -4.902942    -3.635457
 O    -5.025770    -3.944315    -3.475737
 H    -5.563263    -3.533329    -4.164537
 H    -3.708569     4.141322    -3.385005
 O    -3.431571     4.959665    -2.933718
 H    -3.747556     5.703514    -3.460422
 H    -0.326371     4.859622    -3.868612
 O    -0.974807     4.157824    -3.678348
 H    -1.750121     4.586331    -3.264105
 H    -1.757306    -4.286952     5.277829
 O    -2.047440    -5.139796     4.918020
 H    -2.986183    -4.998484     4.703544
 H    -2.519140     8.466234    -3.414432
 O    -2.714986     7.516110    -3.547690
 H    -2.528590     7.312494    -4.491088
 H    -2.957084     7.161824     3.543749
 O    -2.904735     7.387454     2.599795
 H    -2.305184     6.715736     2.215433
 H     4.914192     1.465163     4.166694
 O     4.745315     2.422987     4.032174
 H     5.610948     2.801317     3.787491
 H     8.058148    -1.884145     6.062223
 O     8.485562    -2.051194     5.199507
 H     8.424688    -1.189105     4.742483
 H     6.228161    -1.703211     7.617717
 O     6.919491    -1.160322     7.226041
 H     6.444725    -0.399994     6.821921
 H    -1.875104     5.822427    -6.230573
 O    -2.015064     6.754221    -6.001437
 H    -1.151770     7.192747    -6.105097
 H    -8.070524    -0.420932     4.113456
 O    -7.895053    -0.928418     3.308522
 H    -6.985946    -1.270419     3.382314
 H    -8.468220     0.014064     0.380129
 O    -8.492784     0.635501     1.126593
 H    -8.444755     0.070861     1.917009
 H     0.995526    -0.733708     5.890483
 O     0.173090    -0.833114     6.424780
 H    -0.343929    -0.056378     6.149034
 H    -0.526583     7.043487    -1.411241
 O    -0.498177     6.684901    -2.321010
 H    -1.362298     6.890192    -2.743416
 H     0.725719    -8.046315     0.342889
 O    -0.182294    -8.295796     0.112765
 H    -0.616377    -8.390828     0.988250
 H     2.128323     2.513505     5.303267
 O     2.123139     2.261185     4.355579
 H     3.058898     2.302466     4.086278
 H    -7.978089    -5.427411    -5.516628
 O    -7.089516    -5.261029    -5.871823
 H    -6.949886    -4.307999    -5.793135
 H     3.189130    -7.587983     0.791124
 O     2.298066    -7.230054     0.774136
 H     2.194078    -6.868380    -0.143521
 H     3.167359     5.935340    -7.279035
 O     3.328117     4.979609    -7.431537
 H     2.507741     4.514137    -7.206220
 H    -0.537946     6.940717     0.757111
 O    -0.251222     7.666838     0.177966
 H    -0.932286     8.349164     0.263583
 H     4.538104     3.525147     5.269173
 O     4.459037     4.149673     6.030255
 H     5.346816     4.210169     6.392916
 H     7.783887     2.662273     6.766696
 O     7.245706     3.496968     6.726196
 H     7.735429     4.147895     7.227642
 H     4.160933    -7.939924    -1.327231
 O     4.685754    -7.418656    -0.697703
 H     5.110987    -6.751243    -1.260280
 H     6.770282    -5.804250    -2.967223
 O     6.009202    -6.412487    -2.921719
 H     6.357420    -7.321675    -2.887691
 H    -8.873887    -2.323171     3.124282
 O    -9.354474    -3.139582     2.872176
 H    -10.105321    -2.826610     2.339604
 H    -2.707565     8.667199     1.340947
 O    -2.587155     9.050766     0.456298
 H    -3.391710     9.609343     0.317985
 H     8.268125     0.502219     7.239522
 O     8.591451     1.219756     6.683906
 H     8.429526     0.918650     5.773101
 H    -2.235821     4.840206     7.880006
 O    -1.974626     5.087677     6.994140
 H    -2.168508     4.296420     6.407913
 H    -6.253335    -6.384531    -3.378171
 O    -5.596145    -6.552091    -4.077979
 H    -6.055381    -6.245834    -4.889652
 H     6.904348    -2.813148     2.491127
 O     7.006928    -2.524192     1.565106
 H     7.950958    -2.585199     1.358194
 H     2.282718     6.736971    -0.654532
 O     2.541309     7.461686    -0.041961
 H     1.700367     7.780203     0.308537
 H    -4.133233    -7.315044    -2.999595
 O    -3.555927    -7.376890    -2.229881
 H    -2.651198    -7.478925    -2.576255
 H     0.743244     6.865285    -5.423891
 O     0.553976     7.747550    -5.820022
 H     0.579359     8.358393    -5.054822
 H    -8.253140    -1.702991    -1.532498
 O    -8.526938    -1.447674    -0.636830
 H    -8.283069    -2.245407    -0.114937
 H    -3.345008     7.130617    -1.892122
 O    -3.424504     6.921989    -0.951616
 H    -3.120177     7.713082    -0.458869
 H     2.946858    -4.617344     2.153628
 O     2.035304    -4.969826     2.166651
 H     2.093532    -5.847323     1.735396
 H    -8.944006    -0.696239    -4.765904
 O    -8.812087    -1.175770    -5.614542
 H    -8.546070    -0.456633    -6.244460
 H     7.502197     0.131244    -4.028520
 O     8.160967     0.080218    -3.316711
 H     8.823932     0.758501    -3.508605
 H     4.188030     6.702647     0.056687
 O     4.899130     6.080937    -0.167063
 H     4.444032     5.246043    -0.416233
 H    -8.054190     0.129145    -2.789048
 O    -8.955011     0.201616    -3.189962
 H    -9.578527     0.079594    -2.466216
 H     6.057954     3.942286    -3.260847
 O     5.596902     3.142515    -2.946805
 H     6.201315     2.704809    -2.301431
 H    -1.228692    -6.949363    -0.056293
 O    -1.854101    -6.209427    -0.197104
 H    -2.457988    -6.500295    -0.887352
 H    -3.826488    -7.879193     0.864534
 O    -4.038975    -7.651702     1.772710
 H    -3.832332    -6.690599     1.861011
 H    -2.756091    -5.169322     1.099285
 O    -3.456275    -5.076940     1.765718
 H    -3.167687    -4.374881     2.383477
 H     5.446141    -6.306110     4.551235
 O     4.679652    -6.054084     4.032789
 H     4.959199    -6.116042     3.104017
 H    -9.544891    -6.197605    -3.872871
 O    -9.579553    -5.713479    -4.729509
 H    -10.225615    -6.174506    -5.264907
 H     6.392286    -5.655105     0.942572
 O     5.895913    -6.267228     1.524136
 H     5.435301    -6.845129     0.904219
 H    -1.217781    -6.852966     2.421358
 O    -1.348898    -7.815672     2.450606
 H    -2.307978    -7.948779     2.458457
 H    -10.078607    -4.014834    -4.391951
 O    -10.210316    -3.100883    -4.089066
 H    -9.998517    -2.518215    -4.831632
 H     0.361589     8.030632    -3.006802
 O     0.665363     8.880002    -3.389404
 H     1.571758     9.019530    -3.044309
 H    -9.036147    -7.986190    -2.549828
 O    -9.631168    -7.235586    -2.518190
 H    -9.500238    -6.826358    -1.643856
 H     2.197932     0.519793     4.576613
 O     2.310034    -0.343435     5.018392
 H     2.515885    -1.001817     4.321411
 H    -6.917914     0.722893    -7.411055
 O    -7.816452     0.874613    -7.079114
 H    -7.692773     1.530020    -6.344114
 H     6.099241     4.137872    -7.259805
 O     5.524323     4.047388    -6.499857
 H     4.668459     4.505978    -6.764586
 H    -5.388682     10.189326     1.067030
 O    -4.912295     10.238009     0.227414
 H    -5.504362     9.768057    -0.392112
 H    -0.861649    -0.983286    -5.744436
 O    -1.043629    -0.309855    -6.435028
 H    -0.264150     0.275464    -6.380622
 H     4.657261    -0.220532    -7.014442
 O     4.753577    -1.158852    -6.819213
 H     5.609745    -1.263294    -6.367749
 H     2.598818    -8.761971    -2.899884
 O     3.554869    -8.681334    -2.910470
 H     3.763435    -8.072687    -3.634613
 H    -4.405847    -0.372464    -7.790968
 O    -4.902653     0.381304    -7.426340
 H    -4.185626     1.002925    -7.149749
 H     1.466561     3.538646     6.778008
 O     2.222010     2.945517     6.956940
 H     3.028010     3.480549     6.835250
 H    -11.273692    -2.777564     0.175269
 O    -10.851822    -2.152430     0.765028
 H    -10.131803    -1.743272     0.253598
 H    -7.255712     1.695553     7.817324
 O    -7.737976     2.533279     7.765518
 H    -7.844294     2.844631     8.663870
 H     6.294247    -8.975947    -1.496747
 O     6.360569    -9.066693    -2.452296
 H     5.472187    -9.293134    -2.754788
 H     6.577934     5.297487    -0.733178
 O     7.217854     4.647177    -1.040752
 H     7.428696     4.095273    -0.260126
 H    -5.191053    -3.083638     5.887848
 O    -5.201178    -2.337379     6.527223
 H    -4.559088    -2.603187     7.208161
 H     2.771217     1.283067     7.494047
 O     3.245367     0.447680     7.375996
 H     2.913187     0.081251     6.529536
 H    -2.507560    -3.086922     7.049797
 O    -2.978531    -3.247622     7.895861
 H    -2.348406    -2.931749     8.559698
 H     5.918111     1.893024     6.646164
 O     5.633920     1.024188     6.356610
 H     4.757822     0.853856     6.761850
 H     2.139018    -4.466421     3.997817
 O     2.636557    -4.420851     4.827035
 H     3.340007    -5.084110     4.713480
 H     10.460873    -2.586791    -2.029619
 O     10.972692    -2.613386    -1.175979
 H     11.897439    -2.570894    -1.413351
 H     3.785891     8.375051    -2.690126
 O     3.107684     8.932237    -2.288654
 H     2.953967     8.556404    -1.402631
 H    -8.050085    -6.575200     0.385255
 O    -8.711589    -6.143586    -0.179430
 H    -8.661989    -5.201517     0.114789
 H    -0.847543     9.731654    -2.945964
 O    -1.783314     9.880592    -2.711699
 H    -1.831834     9.975625    -1.757993
 H     4.050763     4.134703    -3.690858
 O     3.490862     4.916854    -3.682310
 H     4.049194     5.691127    -3.461498
 H     5.109975     6.674302    -1.837189
 O     5.020262     6.908515    -2.781505
 H     5.797203     6.571247    -3.245767
 H    -0.286650     4.998396     6.273241
 O     0.429093     4.539441     5.811255
 H     1.109602     5.196521     5.527937
 H     3.276516     5.439941     5.280538
 O     2.501712     5.883824     4.904718
 H     2.436077     5.577279     3.986436
 H    -7.230712     8.891654     0.243808
 O    -6.956934     8.692200    -0.661191
 H    -6.713947     7.749858    -0.660493
 H    -1.150282    -5.157147     3.505560
 O    -0.719992    -5.037802     2.628231
 H     0.202577    -5.296555     2.700277
 H     4.409243    -2.283989     6.141758
 O     4.392435    -2.411925     5.168985
 H     3.682163    -3.062109     4.992282
 H     7.269517    -6.192449     2.915311
 O     7.657410    -5.845754     3.728592
 H     7.178111    -5.015765     3.911138
 H     9.190359    -4.858295     3.656925
 O     9.813081    -4.118226     3.528527
 H     9.551448    -3.436737     4.159830
 H     2.868847     8.158413    -7.849221
 O     2.892380     7.601199    -7.072622
 H     2.026683     7.731390    -6.614655
 H    -0.390100    -1.553558     8.123169
 O    -0.578821    -2.209906     8.808442
 H     0.137227    -2.848956     8.752819
 H     8.316741     4.613284    -2.254840
 O     8.980186     4.663848    -2.990542
 H     9.706323     5.176295    -2.634930
 H     6.279774     4.872137    -5.116980
 O     6.613592     5.249051    -4.281440
 H     7.563741     5.099215    -4.217369
 H     10.588704     2.360149    -4.272638
 O     9.865557     2.228476    -3.661422
 H     9.479227     3.111666    -3.466985
 H     3.358754    -2.617232     7.805803
 O     4.186101    -2.097596     7.806300
 H     3.901210    -1.177312     7.913878
 H    -2.510801    -1.788350    -8.748115
 O    -2.904616    -1.501702    -7.925397
 H    -2.202400    -1.039029    -7.419550
 H     5.116053     5.386504     1.631098
 O     4.929897     4.808383     2.381697
 H     3.962493     4.821931     2.500098
 H    -3.735894    -6.238096    -4.874478
 O    -2.936148    -5.713614    -4.955810
 H    -3.185167    -4.926131    -5.465505
 H    -6.494272     5.947939     5.257656
 O    -6.072150     6.783912     4.986206
 H    -5.958523     6.727266     4.011736
 H    -7.343517     3.877293     6.438455
 O    -7.104019     4.330733     5.620419
 H    -6.862273     3.621554     5.002959
 H    -7.270368     9.331694     2.888915
 O    -7.048417     9.747513     2.030640
 H    -7.524328     10.578574     2.012273
 H    -5.816225    -7.070732     1.682598
 O    -6.443684    -6.436007     1.302974
 H    -5.924660    -5.971294     0.611958
 H    -3.535242    -4.960392     7.623890
 O    -3.769376    -5.795413     7.180306
 H    -2.984956    -6.047559     6.679450
 H     9.569719     0.924252    -0.673695
 O     9.605128     1.884961    -0.833913
 H     9.895647     1.980014    -1.747062
 H    -7.810395    -4.392560     3.354613
 O    -6.881599    -4.644659     3.331553
 H    -6.761527    -5.266130     2.584943
 H     1.258263    -2.485866     6.867374
 O     1.772650    -3.229691     7.199290
 H     1.976573    -3.779877     6.426808
 H    -3.497749    -2.771020    -6.783541
 O    -3.899169    -3.409704    -6.175784
 H    -4.849285    -3.283286    -6.244342
 H    -8.664748     8.162629     4.299143
 O    -7.877219     8.699915     4.396890
 H    -7.186151     8.103385     4.754230
 H     7.979033    -1.910771    -5.338021
 O     7.051546    -1.668602    -5.335843
 H     6.602672    -2.330336    -4.776479
 H    -4.683394    -5.131226     5.800410
 O    -4.751042    -4.528370     5.034157
 H    -5.522083    -4.772475     4.502124
 N    -7.537057     2.501531    -4.788726
 H    -7.776046     3.485704    -4.857854
 H    -6.616932     2.449341    -4.361945
 H    -8.189348     2.067833    -4.135051
