604
grain_mol42 // -1574.408770673017 // -39.991449959 // -591.611065372018 // -1022.78915526 // -0.034638475 // -0.582835302457 // -0.009174909715
 H    -1.881326    -0.057467     2.468477
 O    -0.906537    -0.011917     2.572556
 H    -0.624733    -0.893504     2.913144
 H    -0.349536    -1.872935    -2.814717
 O    -0.447156    -1.882608    -1.849860
 H    -1.400610    -1.802405    -1.680514
 H    -2.833073     1.808831     0.803064
 O    -2.709099     1.160750     0.089424
 H    -1.916131     1.451271    -0.396770
 H    -3.735041     1.853070    -3.091249
 O    -3.208202     2.198656    -3.849358
 H    -2.313971     2.348470    -3.525176
 H    -0.122942    -0.617293    -0.760354
 O    -0.024777     0.122075    -0.129614
 H    -0.467894    -0.162139     0.680489
 H     1.050745    -1.935903    -4.709580
 O     0.111852    -2.131739    -4.551937
 H     0.035526    -3.097211    -4.579126
 H    -4.986755     2.327199    -1.382893
 O    -4.598952     1.502509    -1.734998
 H    -3.935016     1.243419    -1.052633
 H    -3.702594     3.360645     2.409078
 O    -2.965891     2.750000     2.214083
 H    -2.210802     3.112123     2.713216
 H     2.578176     0.287661    -2.845572
 O     1.971674    -0.348296    -2.412638
 H     1.069862    -0.054881    -2.644862
 H    -1.100628     0.284956    -3.590239
 O    -0.309236     0.780219    -3.293839
 H    -0.583894     1.382356    -2.582881
 H     2.624262    -0.513123     0.675079
 O     2.557375    -1.269397     0.056494
 H     2.309875    -0.901734    -0.813753
 H    -2.871699    -0.500171    -0.616955
 O    -2.981585    -0.974745    -1.451639
 H    -3.779176    -1.530985    -1.387723
 H     2.776855     1.308459    -0.713433
 O     1.946730     1.809213    -0.620966
 H     1.238076     1.151837    -0.457145
 H     0.554558     3.174001    -3.222568
 O     1.469879     3.009260    -2.961149
 H     1.460309     2.556550    -2.098287
 H     0.151905    -3.976888    -0.461864
 O    -0.053714    -4.677282    -1.121595
 H    -0.840230    -5.135548    -0.746858
 H    -6.389628     2.101552     2.877229
 O    -6.474122     2.315168     3.843408
 H    -7.224835     1.780878     4.169528
 H     1.117345    -3.669278     1.411985
 O     0.708996    -3.036539     0.793396
 H     1.385209    -2.371734     0.549892
 H    -2.989153     5.189061    -1.093117
 O    -2.810362     4.401864    -0.545135
 H    -3.697421     4.024471    -0.369393
 H    -5.572914    -1.309157     1.604601
 O    -5.292748    -0.678304     0.907587
 H    -5.373224    -1.150506     0.073429
 H    -0.413861    -3.149822     3.108535
 O    -0.126461    -2.329042     3.543154
 H     0.820881    -2.218757     3.359054
 H     5.216345     1.103939    -1.020045
 O     4.432246     0.571197    -0.825610
 H     4.648968     0.174140     0.046994
 H     0.630806     2.438175     1.076413
 O     0.604948     2.112857     1.985596
 H     0.003805     1.347117     2.031154
 H     4.468612    -0.448878    -2.181295
 O     4.699023    -0.945849    -2.997125
 H     5.194953    -0.302474    -3.550883
 H     2.984849     3.308282    -0.926274
 O     3.856245     3.723269    -0.883636
 H     4.367580     3.430403    -1.663443
 H    -5.852217    -1.585728    -1.985550
 O    -5.324658    -2.272222    -1.522442
 H    -5.213066    -2.996625    -2.162149
 H    -4.931131    -4.096941     1.212414
 O    -5.620466    -3.479443     0.903804
 H    -5.371640    -3.205136     0.010918
 H     2.728300     2.158532    -3.589263
 O     3.412807     1.481204    -3.763909
 H     3.518656     1.431860    -4.719807
 H    -5.340559     3.848241     3.600103
 O    -4.765012     4.437010     3.100550
 H    -4.260976     4.985522     3.739012
 H     0.700988     0.970997    -4.687172
 O     1.210900     0.849346    -5.514039
 H     1.825699     0.108442    -5.329056
 H     0.968036     5.791006    -2.297642
 O     1.753478     5.482118    -1.814706
 H     2.329611     5.032544    -2.464588
 H    -2.740926    -3.523282    -1.776078
 O    -2.908925    -3.764790    -0.849357
 H    -3.666092    -4.366889    -0.830872
 H     2.081756     5.154836    -4.513649
 O     1.215875     5.226852    -4.951977
 H     1.230277     4.520329    -5.625413
 H     7.728119     1.931666    -0.729860
 O     6.956157     1.553628    -1.189983
 H     7.331781     0.870171    -1.777599
 H     4.415215     2.861188     0.452530
 O     4.734165     2.519220     1.312964
 H     4.636224     3.276176     1.927237
 H     1.116798    -3.171137    -2.079449
 O     1.984179    -3.014446    -2.480329
 H     2.061005    -2.037910    -2.525045
 H     1.097443     4.630268    -0.586811
 O     0.627635     4.163427     0.141166
 H    -0.066453     4.768131     0.458808
 H    -5.827491     0.944415     1.126145
 O    -6.329025     1.767591     1.293288
 H    -7.252263     1.514749     1.036745
 H    -2.287452    -2.656646     0.271993
 O    -1.833687    -2.071326     0.908337
 H    -0.920344    -2.401728     0.931237
 H    -3.818174    -0.345244     4.219744
 O    -3.832768    -0.466173     5.196707
 H    -4.584687    -1.052207     5.441158
 H    -6.142533    -2.910364     3.140877
 O    -5.712402    -2.043668     3.229044
 H    -4.756854    -2.256756     3.252525
 H    -2.823006    -0.466482    -3.028338
 O    -2.537961    -0.539518    -3.966485
 H    -2.364182    -1.505089    -4.027927
 H    -3.347040    -3.477890    -3.730449
 O    -2.498517    -3.081838    -3.470435
 H    -1.791353    -3.710579    -3.715648
 H     3.300120    -1.152761    -4.144545
 O     2.765433    -1.293183    -4.949249
 H     3.419650    -1.450982    -5.652940
 H     4.760592     2.339868    -6.494436
 O     4.233618     1.515821    -6.514903
 H     3.405969     1.741876    -6.946851
 H    -4.376806     0.967431     5.703633
 O    -4.876491     1.789219     5.944079
 H    -5.425102     1.995421     5.160341
 H    -4.037527    -0.125754     1.940814
 O    -3.521790     0.203627     2.696640
 H    -3.449985     1.175430     2.605644
 H    -5.792319     0.478170    -2.355973
 O    -6.314327    -0.199311    -2.833593
 H    -5.864603    -0.298403    -3.695051
 H     2.001399    -3.826662    -4.012937
 O     1.972598    -4.298080    -4.868463
 H     1.573226    -5.161339    -4.675349
 H     4.494895    -3.498068    -0.478363
 O     4.749749    -2.738785     0.091228
 H     3.979703    -2.123078     0.061799
 H    -0.305488     3.018234    -0.899540
 O    -1.037658     2.626525    -1.404727
 H    -1.763505     3.275970    -1.298822
 H     1.625400     4.443970     1.594574
 O     2.056862     4.593308     2.455768
 H     1.864762     3.806403     2.989361
 H     3.606182     1.253758     1.750464
 O     2.840840     0.665121     1.899967
 H     2.056852     1.239140     2.001439
 H     3.204969    -3.927427    -1.936530
 O     3.908729    -4.540798    -1.610336
 H     4.605319    -4.525737    -2.286490
 H     5.095793    -3.741206    -4.328110
 O     5.491468    -3.437789    -3.473574
 H     5.065154    -2.574404    -3.281921
 H    -1.236969     5.067994     2.079263
 O    -1.405256     5.613211     1.275444
 H    -2.018842     5.102187     0.687111
 H    -5.781520     3.109958     0.351043
 O    -5.320608     3.612638    -0.347411
 H    -5.780040     4.460436    -0.518702
 H     4.962640    -3.751941     3.100282
 O     4.220387    -3.590312     2.512037
 H     4.567894    -3.304308     1.637008
 H     5.784242    -1.189897     1.517772
 O     5.374006    -0.303214     1.493136
 H     6.148343     0.289594     1.552568
 H     1.731865    -6.677147    -2.923949
 O     1.575634    -6.908471    -3.864933
 H     2.460117    -6.969144    -4.254434
 H    -7.211212    -3.707474     0.673799
 O    -8.174074    -3.717799     0.450034
 H    -8.656052    -3.525806     1.283757
 H     3.159157    -2.351083     2.923223
 O     2.460652    -1.690630     3.090335
 H     2.682729    -0.886040     2.587642
 H    -2.114465     2.702960     5.062880
 O    -2.844050     3.337382     5.189766
 H    -3.586299     2.825619     5.563454
 H    -0.960445     0.930681     3.996740
 O    -0.866193     1.490665     4.799915
 H    -0.030686     1.955404     4.682051
 H     0.339310     3.403519    -6.913396
 O     1.293367     3.220802    -6.767753
 H     1.311590     2.373471    -6.283056
 H     7.035091    -2.703103     4.920371
 O     6.298085    -3.169217     4.458343
 H     5.476384    -2.823744     4.881859
 H     7.895097     1.622877     1.598031
 O     7.819792     0.695514     1.893098
 H     8.326638     0.143535     1.268412
 H    -4.009899    -0.577361    -4.718907
 O    -4.930013    -0.633978    -5.075453
 H    -4.901709    -0.266019    -5.979839
 H     6.477518    -1.322781    -1.980017
 O     6.872487    -1.780979    -1.232599
 H     6.129381    -2.055037    -0.662752
 H     4.569656    -0.715224     4.575519
 O     4.982645     0.030844     4.109408
 H     4.954374    -0.141558     3.144083
 H    -0.172884     3.340394     2.887297
 O    -0.818991     3.988666     3.232960
 H    -0.533044     4.259492     4.126726
 H     8.233392    -1.088682    -0.496876
 O     9.000215    -0.692525    -0.025284
 H     9.712026    -1.345653    -0.045487
 H     9.561799    -3.634633     2.426079
 O     9.291254    -3.460687     1.498031
 H     10.074804    -3.269737     0.970554
 H    -2.491431    -2.593076     3.842886
 O    -3.096610    -2.694952     3.098646
 H    -2.626850    -2.366270     2.291008
 H    -2.066646     0.710498    -6.299953
 O    -2.705678     1.447932    -6.359846
 H    -2.981798     1.635084    -5.438549
 H    -1.201435     3.795267    -5.532791
 O    -1.301786     3.751800    -6.512211
 H    -1.876414     2.980046    -6.662768
 H    -4.523020    -6.300133    -1.178995
 O    -5.015446    -5.556978    -0.799425
 H    -5.772707    -5.398327    -1.403183
 H     2.755554    -5.741635    -1.365353
 O     1.957623    -6.303394    -1.292401
 H     1.181275    -5.684781    -1.202651
 H     3.446967    -4.224276    -5.506193
 O     4.412063    -4.205734    -5.751498
 H     4.525856    -3.465464    -6.354597
 H     7.340852     3.608675     2.220683
 O     7.284184     3.240741     1.329793
 H     6.359612     2.897453     1.258887
 H     6.639046    -3.733627     0.539209
 O     7.145140    -4.537612     0.333950
 H     8.019770    -4.361017     0.733497
 H    -7.412200    -4.537784    -2.569623
 O    -7.174534    -5.462165    -2.334643
 H    -7.807265    -5.737167    -1.643798
 H    -4.636225     6.767938     4.796965
 O    -3.739613     6.444313     4.587744
 H    -3.272659     6.251590     5.415110
 H     7.062992     3.719320     4.984004
 O     7.088029     3.311074     4.108731
 H     7.351642     2.383284     4.258675
 H    -6.010756     0.877408     6.824523
 O    -6.778651     0.326241     7.102725
 H    -6.486458    -0.592523     6.981743
 H    -0.371361    -4.870234    -2.847441
 O    -0.518132    -4.785320    -3.807096
 H    -1.095545    -5.507253    -4.086998
 H     6.567829     0.401234     4.505494
 O     7.535847     0.606418     4.482953
 H     7.771398     0.560363     3.529258
 H     4.955896    -6.559286    -3.686575
 O     4.285166    -6.758684    -4.374091
 H     4.408437    -6.088927    -5.055207
 H    -5.801894    -1.994851    -5.336764
 O    -6.403393    -2.769276    -5.455666
 H    -7.256006    -2.363968    -5.760477
 H    -7.849999     0.594478     5.862806
 O    -8.399519     0.911477     5.101900
 H    -9.029362     1.532908     5.470804
 H    -5.407689     5.700916     2.145932
 O    -5.652173     6.607230     1.868157
 H    -4.801951     7.094270     1.865300
 H     5.799202     1.686734    -3.858716
 O     6.064875     0.900682    -4.376464
 H     5.600275     0.967038    -5.212251
 H    -6.013530     6.388194     0.209141
 O    -6.014882     6.153961    -0.742504
 H    -5.121374     6.401526    -1.061796
 H    -0.117639    -7.454423    -3.055459
 O    -0.830900    -7.585480    -2.419943
 H    -0.446432    -7.916971    -1.599923
 H    -2.670110    -1.572623     5.502752
 O    -2.009618    -2.287453     5.666402
 H    -1.188227    -1.805349     5.878555
 H     7.597359    -4.388582    -1.299982
 O     7.775446    -4.383978    -2.270499
 H     6.996565    -3.915626    -2.640103
 H    -8.743919    -3.073874    -3.431600
 O    -7.831916    -2.975383    -3.073891
 H    -7.272407    -2.784278    -3.842096
 H     8.986114    -3.144506    -2.476141
 O     9.690766    -2.467613    -2.633854
 H     9.207091    -1.613141    -2.694884
 H    -4.968767    -5.049890    -3.628351
 O    -4.950599    -4.085302    -3.507673
 H    -5.460179    -3.707159    -4.234926
 H    -3.676112     3.944965    -3.620889
 O    -3.409168     4.807028    -3.262312
 H    -3.692608     5.494410    -3.866347
 H    -0.271306     4.725516    -4.070166
 O    -0.922667     4.026490    -3.881483
 H    -1.720446     4.463506    -3.521415
 H    -2.046011    -4.048739     5.376758
 O    -2.317806    -4.917451     5.041314
 H    -3.247271    -4.789985     4.782279
 H    -2.493953     8.333644    -3.856700
 O    -2.681217     7.377999    -3.957556
 H    -2.457463     7.135626    -4.883219
 H    -3.214188     7.312233     3.125468
 O    -3.123360     7.500009     2.176214
 H    -2.506825     6.815772     1.844154
 H     4.645123     1.688113     4.304470
 O     4.478481     2.638935     4.125150
 H     5.351427     3.011657     3.898898
 H     7.719762    -1.563421     6.464565
 O     8.183419    -1.763464     5.627926
 H     8.137556    -0.921117     5.133487
 H     5.826378    -1.328784     7.934677
 O     6.531697    -0.799069     7.549948
 H     6.071443    -0.058272     7.095620
 H    -1.724473     5.580440    -6.530289
 O    -1.878278     6.520796    -6.350733
 H    -1.012086     6.958505    -6.432274
 H    -8.319571    -0.267922     3.795986
 O    -8.109447    -0.809146     3.021974
 H    -7.202127    -1.140864     3.146440
 H    -8.565541     0.017725     0.033349
 O    -8.622341     0.664505     0.756190
 H    -8.604334     0.129023     1.567699
 H     0.666434    -0.459129     5.955354
 O    -0.176874    -0.540988     6.459278
 H    -0.684900     0.220944     6.130327
 H    -0.581305     7.003982    -1.716313
 O    -0.513140     6.610012    -2.609091
 H    -1.360845     6.790862    -3.074038
 H     0.652462    -7.993936     0.707056
 O    -0.243990    -8.258650     0.450257
 H    -0.713919    -8.318708     1.310299
 H     1.810925     2.767133     5.282266
 O     1.845650     2.475643     4.346640
 H     2.791327     2.511467     4.113745
 H    -7.811182    -5.667731    -5.605571
 O    -6.909675    -5.515063    -5.933305
 H    -6.771947    -4.559887    -5.886149
 H     3.094067    -7.504839     1.236013
 O     2.203095    -7.153046     1.167741
 H     2.135372    -6.828822     0.232718
 H     3.354803     5.676288    -7.376606
 O     3.524668     4.716457    -7.485949
 H     2.698626     4.255657    -7.272260
 H    -0.681830     6.989999     0.452021
 O    -0.373696     7.693867    -0.143397
 H    -1.060685     8.374982    -0.114469
 H     4.216099     3.789678     5.305267
 O     4.103757     4.444188     6.036462
 H     4.975843     4.524416     6.431802
 H     7.400651     3.006011     6.969158
 O     6.861709     3.835507     6.872395
 H     7.328136     4.509216     7.365858
 H     4.153137    -7.937196    -0.825067
 O     4.652324    -7.390279    -0.196425
 H     5.093413    -6.740032    -0.766457
 H     6.824940    -5.852331    -2.439389
 O     6.066248    -6.462545    -2.404426
 H     6.413701    -7.368322    -2.314699
 H    -9.074358    -2.214050     2.853366
 O    -9.541284    -3.042659     2.615325
 H    -10.270089    -2.755274     2.039372
 H    -2.879680     8.727507     0.874759
 O    -2.723791     9.076630    -0.018565
 H    -3.524749     9.623476    -0.212994
 H     7.872410     0.870346     7.549690
 O     8.216867     1.565679     6.978759
 H     8.092661     1.226993     6.075188
 H    -2.664791     5.173620     7.579742
 O    -2.367439     5.386443     6.696288
 H    -2.534136     4.571085     6.135092
 H    -6.172357    -6.524344    -3.361660
 O    -5.486490    -6.717838    -4.026520
 H    -5.913173    -6.447977    -4.868375
 H     6.716801    -2.644931     2.890734
 O     6.857362    -2.395863     1.958163
 H     7.809559    -2.460550     1.794554
 H     2.196231     6.743719    -0.832816
 O     2.426089     7.494820    -0.240695
 H     1.569844     7.822236     0.061208
 H    -4.066629    -7.426779    -2.859194
 O    -3.521421    -7.454410    -2.064515
 H    -2.602704    -7.564953    -2.368936
 H     0.854388     6.668732    -5.662481
 O     0.677557     7.533243    -6.101738
 H     0.669251     8.174567    -5.361436
 H    -8.263740    -1.761976    -1.797288
 O    -8.579633    -1.488086    -0.922180
 H    -8.350069    -2.266256    -0.365842
 H    -3.377655     7.055888    -2.316214
 O    -3.494109     6.886221    -1.371648
 H    -3.213781     7.698769    -0.900524
 H     2.783935    -4.482025     2.465063
 O     1.874132    -4.839147     2.455728
 H     1.953229    -5.732830     2.063156
 H    -8.752879    -0.927824    -5.179198
 O    -8.638400    -1.512754    -5.964280
 H    -8.345854    -0.917311    -6.676776
 H     7.748897    -0.253118    -3.789091
 O     8.264694    -0.058528    -2.980398
 H     8.842307     0.687532    -3.218082
 H     4.070338     6.748343    -0.043404
 O     4.792453     6.121680    -0.210632
 H     4.350918     5.274801    -0.444492
 H    -7.935989     0.013562    -3.354308
 O    -8.824661     0.011372    -3.766496
 H    -9.439536    -0.223782    -3.070233
 H     6.085066     3.873791    -3.157514
 O     5.606971     3.092115    -2.825461
 H     6.192491     2.666835    -2.156458
 H    -1.287956    -6.925206     0.183237
 O    -1.909895    -6.195254    -0.013146
 H    -2.483675    -6.516912    -0.715260
 H    -3.917967    -7.829643     1.033996
 O    -4.168354    -7.566733     1.922745
 H    -3.969166    -6.601590     1.979992
 H    -2.868346    -5.106743     1.200884
 O    -3.595830    -4.991473     1.833623
 H    -3.335739    -4.262808     2.433149
 H     5.188829    -6.057782     5.030536
 O     4.442779    -5.833111     4.471309
 H     4.760647    -5.929702     3.558057
 H    -9.440909    -6.377081    -3.997605
 O    -9.442960    -5.928313    -4.874243
 H    -10.064769    -6.414572    -5.416022
 H     6.280310    -5.549877     1.438867
 O     5.764499    -6.141212     2.024658
 H     5.330189    -6.745720     1.411219
 H    -1.378986    -6.727242     2.653108
 O    -1.507957    -7.688766     2.716055
 H    -2.466146    -7.826033     2.689920
 H    -9.964274    -4.226056    -4.616911
 O    -10.112341    -3.299095    -4.364569
 H    -9.870447    -2.755144    -5.126441
 H     0.368225     7.930134    -3.313088
 O     0.685074     8.764786    -3.717394
 H     1.576023     8.922439    -3.341232
 H    -8.981653    -8.104703    -2.582990
 O    -9.580887    -7.357168    -2.607237
 H    -9.487086    -6.910611    -1.746343
 H     1.917239     0.745947     4.641884
 O     2.014687    -0.097950     5.122990
 H     2.250987    -0.782904     4.462246
 H    -6.437113     0.209930    -7.708663
 O    -7.399915     0.283968    -7.603887
 H    -7.573598     1.187125    -7.335731
 H     6.291388     3.895973    -7.162340
 O     5.686209     3.838457    -6.423074
 H     4.840227     4.278353    -6.742529
 H    -5.552207     10.222909     0.429159
 O    -5.042613     10.240303    -0.391962
 H    -5.607052     9.740807    -1.014458
 H    -0.708665    -1.195492    -5.725539
 O    -0.866279    -0.551270    -6.449576
 H    -0.090073     0.038718    -6.387010
 H     4.685721    -0.395439    -6.846997
 O     4.834738    -1.338963    -6.676702
 H     5.697109    -1.370542    -6.195081
 H     2.661836    -8.831018    -2.423257
 O     3.617437    -8.746760    -2.400599
 H     3.851286    -8.165818    -3.139633
 H    -4.101432    -0.594351    -7.931922
 O    -4.629120     0.156176    -7.618945
 H    -3.965988     0.810841    -7.301176
 H     1.085101     3.848236     6.684770
 O     1.834737     3.267330     6.919932
 H     2.642993     3.801156     6.808537
 H    -11.348595    -2.798907    -0.172769
 O    -10.953954    -2.150774     0.410965
 H    -10.215821    -1.755104    -0.085395
 H    -7.666141     2.002794     7.439658
 O    -8.149542     2.834852     7.334427
 H    -8.292510     3.182364     8.214239
 H     6.295621    -8.967361    -0.864537
 O     6.403523    -9.096042    -1.812005
 H     5.529212    -9.338681    -2.142041
 H     6.495259     5.324047    -0.674960
 O     7.152702     4.667973    -0.928556
 H     7.331303     4.146401    -0.119843
 H    -5.506485    -2.839757     5.794964
 O    -5.546026    -2.068650     6.402806
 H    -4.931075    -2.302804     7.119416
 H     2.367343     1.631351     7.545902
 O     2.848888     0.794232     7.482107
 H     2.553123     0.391805     6.638424
 H    -2.873188    -2.781239     7.065585
 O    -3.377683    -2.910273     7.897723
 H    -2.776724    -2.563572     8.573100
 H     5.543711     2.222982     6.803413
 O     5.275747     1.340822     6.539820
 H     4.383729     1.182954     6.914296
 H     1.900211    -4.259470     4.266919
 O     2.363068    -4.178118     5.113319
 H     3.072749    -4.841850     5.055683
 H     10.674331    -2.553228    -1.296157
 O     11.095828    -2.540251    -0.389312
 H     12.041598    -2.648389    -0.523490
 H     3.775818     8.304752    -2.870205
 O     3.080157     8.875127    -2.520269
 H     2.890449     8.534308    -1.627022
 H    -8.122837    -6.569570     0.328190
 O    -8.762016    -6.165352    -0.280791
 H    -8.727866    -5.211458    -0.023720
 H    -0.847516     9.625441    -3.370993
 O    -1.792548     9.780990    -3.182639
 H    -1.881797     9.911992    -2.236155
 H     4.095809     4.029450    -3.682803
 O     3.533391     4.808574    -3.731214
 H     4.079824     5.593609    -3.519824
 H     5.070446     6.646853    -1.894930
 O     5.018927     6.843870    -2.850422
 H     5.814025     6.489621    -3.269369
 H    -0.650990     5.276740     6.049001
 O     0.085397     4.803102     5.637004
 H     0.774096     5.451774     5.354115
 H     2.948513     5.696379     5.185558
 O     2.188231     6.120519     4.760586
 H     2.161327     5.776148     3.853745
 H    -7.355189     8.881458    -0.415636
 O    -7.041737     8.649128    -1.299597
 H    -6.796284     7.708318    -1.252247
 H    -1.363235    -4.987957     3.668331
 O    -0.897801    -4.904163     2.804965
 H     0.022475    -5.152547     2.926033
 H     4.072220    -1.979593     6.410453
 O     4.096654    -2.148013     5.444057
 H     3.395922    -2.807816     5.264960
 H     7.077111    -6.001358     3.468280
 O     7.429456    -5.620207     4.282317
 H     6.940147    -4.785775     4.410704
 H     8.958738    -4.628375     4.237676
 O     9.584741    -3.891717     4.105381
 H     9.293957    -3.184572     4.694382
 H     3.071721     7.874204    -8.049096
 O     3.066257     7.349486    -7.249899
 H     2.182099     7.492860    -6.832910
 H    -0.807652    -1.194057     8.161024
 O    -1.021503    -1.822439     8.864936
 H    -0.301687    -2.459670     8.864397
 H     8.299255     4.585315    -2.097481
 O     8.993469     4.609195    -2.805167
 H     9.700889     5.140703    -2.440021
 H     6.379787     4.718499    -5.044914
 O     6.679694     5.136348    -4.215798
 H     7.625585     4.987055    -4.104926
 H     10.656915     2.264016    -3.930657
 O     9.906751     2.144902    -3.350195
 H     9.510999     3.032240    -3.202364
 H     2.954943    -2.249474     8.042079
 O     3.779875    -1.726137     8.055706
 H     3.487557    -0.803621     8.112772
 H    -2.242003    -2.126562    -8.751789
 O    -2.673995    -1.790239    -7.967621
 H    -1.987681    -1.317165    -7.448738
 H     4.937187     5.502308     1.619778
 O     4.722540     4.955887     2.386513
 H     3.750924     4.968479     2.463489
 H    -3.597789    -6.424832    -4.758210
 O    -2.796105    -5.901790    -4.829163
 H    -3.025117    -5.136626    -5.380315
 H    -6.815084     6.151078     4.740568
 O    -6.385264     6.977713     4.453219
 H    -6.230177     6.881802     3.487289
 H    -7.705111     4.125113     5.969881
 O    -7.433425     4.546605     5.144886
 H    -7.163837     3.814507     4.566851
 H    -7.504286     9.430868     2.207010
 O    -7.248386     9.812846     1.342535
 H    -7.727813     10.638828     1.269444
 H    -5.942420    -6.999291     1.735838
 O    -6.556472    -6.384848     1.304470
 H    -6.011000    -5.945032     0.617572
 H    -3.916686    -4.635165     7.673505
 O    -4.128887    -5.489486     7.256372
 H    -3.323925    -5.756804     6.797740
 H     9.497226     0.974751    -0.318141
 O     9.539830     1.926772    -0.520276
 H     9.858164     1.979446    -1.427990
 H    -8.014041    -4.264352     3.211668
 O    -7.084677    -4.514215     3.238665
 H    -6.931554    -5.164093     2.523065
 H     0.894824    -2.168034     7.013815
 O     1.397791    -2.894970     7.396845
 H     1.635163    -3.475149     6.656540
 H    -3.294811    -3.030996    -6.798888
 O    -3.712192    -3.655282    -6.187131
 H    -4.660613    -3.538809    -6.290853
 H    -8.952014     8.312422     3.602668
 O    -8.171917     8.857985     3.713414
 H    -7.493663     8.279336     4.121414
 H     7.937532    -2.058615    -5.433093
 O     7.076613    -1.654117    -5.133997
 H     6.698732    -2.307592    -4.518860
 H    -4.988482    -4.887146     5.812989
 O    -5.025907    -4.316752     5.020408
 H    -5.773757    -4.585683     4.467635
 N     9.537655    -2.827705    -5.660151
 H     9.512838    -3.798653    -5.955850
 H     9.864964    -2.803335    -4.690592
 H     10.223814    -2.354678    -6.239361
