604
grain_mol155 // -1288.983469251752 // -19.6658738306 // -285.865719572353 // -1022.78362351 // -0.01782442 // -0.583101625388 // -0.004142242742
 H    -1.723036    -0.262371     2.482730
 O    -0.748877    -0.172123     2.562050
 H    -0.416790    -1.044949     2.879186
 H    -0.242785    -1.904151    -2.871577
 O    -0.313381    -1.934782    -1.904966
 H    -1.264820    -1.905464    -1.709261
 H    -2.805784     1.585442     0.878825
 O    -2.668673     0.957906     0.149149
 H    -1.903274     1.295748    -0.350074
 H    -3.808174     1.658653    -2.990487
 O    -3.317593     2.043131    -3.754569
 H    -2.423877     2.229995    -3.448819
 H    -0.023196    -0.676739    -0.798117
 O     0.057148     0.055048    -0.156191
 H    -0.351711    -0.264114     0.659112
 H     1.109989    -1.866015    -4.800521
 O     0.185800    -2.108284    -4.624916
 H     0.153880    -3.075901    -4.667301
 H    -5.036815     2.039671    -1.242611
 O    -4.618402     1.241982    -1.621524
 H    -3.926266     1.002208    -0.960412
 H    -3.707269     3.063114     2.537015
 O    -2.947033     2.493044     2.309896
 H    -2.198256     2.881672     2.798370
 H     2.575943     0.399135    -2.930630
 O     2.013261    -0.275613    -2.498768
 H     1.091885    -0.022300    -2.700454
 H    -1.114406     0.228754    -3.585084
 O    -0.340006     0.756694    -3.299469
 H    -0.625168     1.331764    -2.570258
 H     2.751554    -0.466526     0.571358
 O     2.706251    -1.212676    -0.061583
 H     2.416937    -0.841392    -0.916831
 H    -2.769687    -0.695646    -0.585657
 O    -2.877391    -1.159317    -1.426798
 H    -3.645600    -1.754630    -1.354366
 H     2.781594     1.384530    -0.783623
 O     1.931458     1.843917    -0.664450
 H     1.258682     1.151297    -0.493038
 H     0.410327     3.188038    -3.202677
 O     1.338828     3.060150    -2.967863
 H     1.371331     2.594602    -2.112261
 H     0.420250    -4.024209    -0.573082
 O     0.231696    -4.720141    -1.242571
 H    -0.521525    -5.224082    -0.857781
 H    -6.317782     1.667054     3.045194
 O    -6.386928     1.856580     4.017270
 H    -7.103624     1.281868     4.350933
 H     1.417461    -3.705392     1.281990
 O     0.964052    -3.081754     0.685731
 H     1.601127    -2.380453     0.440028
 H    -3.172507     4.989390    -0.944741
 O    -2.941799     4.200348    -0.419439
 H    -3.805195     3.777994    -0.227924
 H    -5.371038    -1.675480     1.685960
 O    -5.138950    -1.019493     0.994415
 H    -5.218655    -1.479774     0.153608
 H    -0.093093    -3.292050     3.025888
 O     0.165581    -2.465865     3.468335
 H     1.101734    -2.307113     3.263909
 H     5.220097     1.308967    -1.148307
 O     4.469370     0.729494    -0.955054
 H     4.724298     0.326109    -0.095003
 H     0.628267     2.377583     1.079661
 O     0.644090     2.033051     1.981845
 H     0.080608     1.239107     2.028097
 H     4.517284    -0.259527    -2.322964
 O     4.747434    -0.727778    -3.157593
 H     5.187717    -0.050605    -3.712486
 H     2.887901     3.396996    -0.962875
 O     3.740111     3.851912    -0.939120
 H     4.240887     3.595017    -1.736845
 H    -5.728589    -1.899021    -1.901276
 O    -5.156237    -2.567255    -1.465635
 H    -5.027130    -3.273759    -2.121825
 H    -4.606504    -4.421348     1.222780
 O    -5.332264    -3.832496     0.943104
 H    -5.119601    -3.530037     0.050029
 H     2.620010     2.285228    -3.638253
 O     3.334270     1.648943    -3.848273
 H     3.406626     1.622114    -4.807934
 H    -5.335667     3.450126     3.777600
 O    -4.799654     4.072377     3.274890
 H    -4.309123     4.636333     3.910954
 H     0.621437     1.023155    -4.711930
 O     1.118232     0.943081    -5.552194
 H     1.768704     0.227072    -5.397647
 H     0.719086     5.804580    -2.235193
 O     1.530992     5.524596    -1.779109
 H     2.110515     5.115889    -2.452046
 H    -2.523881    -3.686949    -1.807180
 O    -2.655845    -3.953291    -0.881570
 H    -3.382460    -4.591752    -0.855822
 H     1.806279     5.264347    -4.490708
 O     0.927151     5.302281    -4.905980
 H     0.957694     4.609954    -5.593369
 H     7.688597     2.269536    -0.885445
 O     6.924045     1.863139    -1.333248
 H     7.324997     1.205922    -1.937526
 H     4.372723     2.995279     0.371186
 O     4.729028     2.652520     1.215905
 H     4.611040     3.391599     1.848338
 H     1.304969    -3.144884    -2.198037
 O     2.151914    -2.936196    -2.618809
 H     2.178687    -1.956574    -2.642927
 H     0.947310     4.620150    -0.550910
 O     0.519993     4.116500     0.178216
 H    -0.194352     4.680344     0.526297
 H    -5.745830     0.571188     1.257870
 O    -6.281427     1.366184     1.452749
 H    -7.197942     1.074153     1.214874
 H    -2.059947    -2.837615     0.246186
 O    -1.618331    -2.242185     0.881644
 H    -0.690213    -2.529142     0.876640
 H    -3.598539    -0.676883     4.275218
 O    -3.581681    -0.816921     5.249492
 H    -4.298535    -1.442511     5.501209
 H    -5.823952    -3.330832     3.203449
 O    -5.433492    -2.446170     3.297519
 H    -4.468622    -2.613346     3.293971
 H    -2.783735    -0.614709    -2.996160
 O    -2.518573    -0.656220    -3.942183
 H    -2.301886    -1.611432    -4.026811
 H    -3.181289    -3.634203    -3.744134
 O    -2.345994    -3.202132    -3.498698
 H    -1.616581    -3.792324    -3.772755
 H     3.331643    -0.984843    -4.274028
 O     2.787238    -1.133560    -5.070754
 H     3.428587    -1.254866    -5.789400
 H     4.565345     2.621935    -6.594872
 O     4.086971     1.767949    -6.615248
 H     3.236142     1.953803    -7.021026
 H    -4.181140     0.579807     5.798145
 O    -4.713374     1.371439     6.067163
 H    -5.291224     1.565752     5.301537
 H    -3.886208    -0.425615     2.007446
 O    -3.366809    -0.085725     2.756043
 H    -3.345196     0.890115     2.683176
 H    -5.777229     0.172283    -2.232009
 O    -6.278125    -0.520556    -2.710255
 H    -5.846292    -0.581838    -3.584167
 H     2.167526    -3.719743    -4.164798
 O     2.138656    -4.173884    -5.029695
 H     1.790554    -5.061093    -4.843846
 H     4.734941    -3.334506    -0.686948
 O     4.967819    -2.572699    -0.111649
 H     4.167255    -1.996770    -0.107605
 H    -0.383753     2.948100    -0.860987
 O    -1.107700     2.530983    -1.357676
 H    -1.861928     3.141177    -1.219508
 H     1.539168     4.418358     1.612754
 O     1.986773     4.572146     2.464757
 H     1.845096     3.768086     2.988595
 H     3.675164     1.325782     1.657139
 O     2.942621     0.697917     1.810695
 H     2.134890     1.231117     1.945022
 H     3.430150    -3.798292    -2.124382
 O     4.169077    -4.382760    -1.824495
 H     4.845454    -4.333950    -2.518030
 H     5.241488    -3.477694    -4.572134
 O     5.652112    -3.147880    -3.735608
 H     5.195815    -2.318986    -3.484746
 H    -1.335456     4.894221     2.179366
 O    -1.546697     5.443423     1.388536
 H    -2.153359     4.915827     0.808075
 H    -5.822807     2.751454     0.525011
 O    -5.405504     3.287588    -0.176015
 H    -5.908449     4.116492    -0.316980
 H     5.304229    -3.633197     2.872861
 O     4.540953    -3.494887     2.305828
 H     4.853313    -3.176950     1.428979
 H     5.961504    -1.004261     1.321298
 O     5.507987    -0.138312     1.321989
 H     6.254257     0.490034     1.375653
 H     2.063999    -6.598039    -3.127859
 O     1.895043    -6.815223    -4.070061
 H     2.772190    -6.830629    -4.480347
 H    -6.915853    -4.132800     0.748233
 O    -7.882429    -4.185543     0.547835
 H    -8.351726    -4.032558     1.396833
 H     3.432048    -2.317641     2.768140
 O     2.706873    -1.695074     2.964662
 H     2.877599    -0.871306     2.473319
 H    -2.022235     2.433676     5.136908
 O    -2.777630     3.029863     5.293145
 H    -3.485263     2.476830     5.674985
 H    -0.811719     0.739959     4.007103
 O    -0.723562     1.288307     4.818717
 H     0.084936     1.795807     4.689702
 H     0.088769     3.476151    -6.880816
 O     1.054070     3.336528    -6.762970
 H     1.124228     2.482845    -6.294862
 H     7.370403    -2.518743     4.660772
 O     6.644578    -3.010456     4.207649
 H     5.818728    -2.713436     4.658766
 H     7.937773     1.904104     1.405002
 O     7.912315     0.968916     1.682519
 H     8.431341     0.453000     1.037826
 H    -4.006742    -0.751364    -4.659079
 O    -4.931759    -0.845643    -4.993884
 H    -4.944465    -0.460510    -5.891366
 H     6.564324    -1.040670    -2.200421
 O     7.004184    -1.483832    -1.469806
 H     6.293618    -1.810279    -0.885713
 H     4.804188    -0.646644     4.417184
 O     5.168316     0.127082     3.955247
 H     5.123553    -0.029130     2.988056
 H    -0.168988     3.205199     2.928054
 O    -0.836426     3.815238     3.300929
 H    -0.542498     4.083121     4.193069
 H     8.348818    -0.743615    -0.748336
 O     9.112649    -0.325584    -0.292705
 H     9.851552    -0.943458    -0.378614
 H     9.882812    -3.272407     2.076723
 O     9.573413    -3.092465     1.162399
 H     10.325842    -2.873037     0.602149
 H    -2.175466    -2.850141     3.821643
 O    -2.793454    -2.967651     3.090293
 H    -2.361037    -2.600939     2.278400
 H    -2.169366     0.657959    -6.261342
 O    -2.843271     1.365431    -6.290846
 H    -3.105105     1.521206    -5.359481
 H    -1.432830     3.766217    -5.454935
 O    -1.555343     3.736068    -6.432424
 H    -2.096290     2.940436    -6.584056
 H    -4.154426    -6.557362    -1.221267
 O    -4.671762    -5.845732    -0.815363
 H    -5.451326    -5.713231    -1.396623
 H     3.081717    -5.644405    -1.574319
 O     2.313099    -6.244585    -1.494798
 H     1.510918    -5.665879    -1.373252
 H     3.585505    -4.022382    -5.701347
 O     4.542816    -3.951118    -5.969226
 H     4.608298    -3.201036    -6.566399
 H     7.303386     3.850156     2.082146
 O     7.241105     3.498646     1.184954
 H     6.333376     3.110582     1.130619
 H     6.913370    -3.484519     0.275099
 O     7.450846    -4.260175     0.043026
 H     8.327410    -4.047304     0.419746
 H    -7.159517    -4.911687    -2.505001
 O    -6.871582    -5.827557    -2.294430
 H    -7.472518    -6.145920    -1.593776
 H    -4.742865     6.377179     5.008072
 O    -3.836110     6.099538     4.773328
 H    -3.341143     5.917361     5.586214
 H     7.091226     3.895705     4.851714
 O     7.113078     3.505188     3.968230
 H     7.424857     2.588671     4.093706
 H    -5.779915     0.389813     6.956934
 O    -6.512854    -0.203334     7.243008
 H    -6.180062    -1.104348     7.096759
 H    -0.120341    -4.897366    -2.963185
 O    -0.295292    -4.800801    -3.917037
 H    -0.843852    -5.544736    -4.197539
 H     6.743724     0.566881     4.320104
 O     7.699637     0.819808     4.277386
 H     7.913016     0.801509     3.317724
 H     5.260010    -6.314169    -3.964854
 O     4.577724    -6.527942    -4.637285
 H     4.658846    -5.845509    -5.311832
 H    -5.744173    -2.242556    -5.260500
 O    -6.310425    -3.042817    -5.380217
 H    -7.189214    -2.673916    -5.655506
 H    -7.627578     0.036106     6.035333
 O    -8.211103     0.339343     5.294475
 H    -8.859734     0.923638     5.690673
 H    -5.527781     5.321479     2.362225
 O    -5.824818     6.216293     2.100906
 H    -5.004209     6.750523     2.091871
 H     5.704304     1.966724    -3.998098
 O     5.990331     1.206285    -4.549872
 H     5.490925     1.275579    -5.365979
 H    -6.217832     6.011517     0.453426
 O    -6.231321     5.797307    -0.504103
 H    -5.358954     6.095210    -0.837003
 H     0.251948    -7.462155    -3.228375
 O    -0.437650    -7.638075    -2.577785
 H    -0.017110    -7.966902    -1.774543
 H    -2.360388    -1.870757     5.505104
 O    -1.662152    -2.555669     5.637716
 H    -0.859886    -2.038290     5.839614
 H     7.837758    -4.036901    -1.614205
 O     7.952264    -4.008667    -2.588390
 H     7.149531    -3.575977    -2.927267
 H    -8.581330    -3.498345    -3.305092
 O    -7.666188    -3.362188    -2.968312
 H    -7.136463    -3.130073    -3.746193
 H     9.060465    -2.749503    -2.962089
 O     9.644515    -1.984583    -3.149791
 H     9.092258    -1.189136    -3.044148
 H    -4.722173    -5.284989    -3.633616
 O    -4.746584    -4.322884    -3.494950
 H    -5.292742    -3.956693    -4.201443
 H    -3.862878     3.759750    -3.479732
 O    -3.626791     4.627350    -3.112906
 H    -3.959818     5.310873    -3.695449
 H    -0.512130     4.714097    -3.996849
 O    -1.122986     3.979838    -3.807237
 H    -1.932182     4.369503    -3.418931
 H    -1.621504    -4.310897     5.314782
 O    -1.859618    -5.185227     4.968458
 H    -2.800654    -5.098327     4.735657
 H    -2.896868     8.204863    -3.658531
 O    -3.044257     7.243921    -3.774654
 H    -2.830260     7.028968    -4.709334
 H    -3.393846     7.021209     3.316667
 O    -3.331467     7.230346     2.369580
 H    -2.692270     6.582128     2.011515
 H     4.756884     1.762567     4.192380
 O     4.540417     2.707099     4.034463
 H     5.389030     3.125811     3.796292
 H     8.038586    -1.376182     6.210460
 O     8.489544    -1.537870     5.358747
 H     8.391293    -0.689676     4.882582
 H     6.174450    -1.260701     7.731227
 O     6.843149    -0.690156     7.339546
 H     6.336177     0.035682     6.911700
 H    -2.066612     5.541924    -6.404097
 O    -2.260668     6.470304    -6.202426
 H    -1.418718     6.950768    -6.296630
 H    -8.107969    -0.809334     3.963816
 O    -7.891825    -1.325630     3.174472
 H    -6.966726    -1.614877     3.270270
 H    -8.463127    -0.466901     0.215094
 O    -8.532388     0.163155     0.951385
 H    -8.468098    -0.385259     1.751845
 H     0.929451    -0.605342     5.897461
 O     0.104257    -0.737553     6.420132
 H    -0.448141     0.004886     6.119312
 H    -0.870619     6.929666    -1.591503
 O    -0.806236     6.556933    -2.494084
 H    -1.673641     6.703620    -2.933282
 H     1.142859    -8.033334     0.502973
 O     0.253650    -8.335628     0.262965
 H    -0.190584    -8.434982     1.132954
 H     1.899599     2.684727     5.260175
 O     1.924872     2.412871     4.318187
 H     2.861621     2.498649     4.063582
 H    -7.581099    -6.003195    -5.552312
 O    -6.696657    -5.800638    -5.899035
 H    -6.604071    -4.840964    -5.836358
 H     3.570593    -7.436159     0.981966
 O     2.662339    -7.126521     0.942406
 H     2.555675    -6.789484     0.015786
 H     2.979756     5.899671    -7.373056
 O     3.192964     4.950996    -7.503478
 H     2.394703     4.447417    -7.280704
 H    -0.914810     6.870748     0.576766
 O    -0.657159     7.599379    -0.012951
 H    -1.375660     8.245403     0.048722
 H     4.253275     3.821779     5.244408
 O     4.128442     4.456490     5.990685
 H     5.005297     4.571255     6.366481
 H     7.513241     3.162649     6.813469
 O     6.932853     3.966711     6.746070
 H     7.378088     4.652576     7.242379
 H     4.596642    -7.779092    -1.112290
 O     5.082378    -7.218212    -0.485477
 H     5.481440    -6.540533    -1.054885
 H     7.118421    -5.541927    -2.753915
 O     6.389784    -6.188715    -2.708521
 H     6.784782    -7.077218    -2.649027
 H    -8.791989    -2.772222     3.002131
 O    -9.224275    -3.618009     2.758890
 H    -9.980920    -3.355569     2.207519
 H    -3.186518     8.490741     1.087755
 O    -3.066214     8.859620     0.196681
 H    -3.890190     9.383885     0.030129
 H     8.101726     1.041449     7.340133
 O     8.397123     1.763443     6.774825
 H     8.266962     1.435839     5.868080
 H    -2.626620     4.828549     7.714283
 O    -2.359212     5.070931     6.828905
 H    -2.503711     4.260387     6.255237
 H    -5.846267    -6.820797    -3.366736
 O    -5.168915    -6.967778    -4.051939
 H    -5.629591    -6.703899    -4.877591
 H     6.998554    -2.437470     2.641321
 O     7.102209    -2.162739     1.711073
 H     8.051655    -2.177681     1.521330
 H     1.936872     6.788220    -0.782590
 O     2.146151     7.538503    -0.182157
 H     1.283536     7.818236     0.148473
 H    -3.687613    -7.629481    -2.934036
 O    -3.121488    -7.644881    -2.153802
 H    -2.206630    -7.705514    -2.482837
 H     0.478231     6.737953    -5.578616
 O     0.248973     7.600786    -5.996268
 H     0.228978     8.227078    -5.243291
 H    -8.123032    -2.195706    -1.657606
 O    -8.429119    -1.953265    -0.769889
 H    -8.148707    -2.729463    -0.234435
 H    -3.678043     6.858213    -2.121629
 O    -3.764670     6.665239    -1.178636
 H    -3.510607     7.480493    -0.695816
 H     3.148222    -4.455333     2.276859
 O     2.256426    -4.855293     2.282331
 H     2.368162    -5.737038     1.870929
 H    -8.737972    -1.323094    -5.008978
 O    -8.615464    -1.886994    -5.808154
 H    -8.370448    -1.265032    -6.515802
 H     7.555543     0.400952    -3.928903
 O     8.203623     0.398953    -3.205557
 H     8.833171     1.107483    -3.400590
 H     3.828575     6.869391    -0.039604
 O     4.575321     6.282051    -0.238979
 H     4.169197     5.419131    -0.477058
 H    -7.920939    -0.377309    -3.186415
 O    -8.818558    -0.414440    -3.577013
 H    -9.403592    -0.692433    -2.870857
 H     5.899779     4.144997    -3.266009
 O     5.476102     3.328210    -2.943381
 H     6.090860     2.936448    -2.278526
 H    -0.859027    -7.049985     0.048296
 O    -1.519594    -6.347080    -0.118901
 H    -2.095676    -6.683624    -0.812092
 H    -3.420332    -8.096771     0.945680
 O    -3.660308    -7.862634     1.845269
 H    -3.506243    -6.890221     1.916640
 H    -2.498175    -5.329654     1.140378
 O    -3.214189    -5.261470     1.792683
 H    -2.974293    -4.532440     2.400189
 H     5.690241    -5.960019     4.750751
 O     4.920738    -5.759981     4.214420
 H     5.219493    -5.825663     3.291928
 H    -9.133237    -6.820200    -3.919223
 O    -9.179228    -6.355711    -4.786464
 H    -9.790555    -6.861458    -5.322309
 H     6.664180    -5.333554     1.145130
 O     6.190867    -5.959391     1.731269
 H     5.771961    -6.573158     1.116282
 H    -0.896788    -6.902563     2.523335
 O    -0.977670    -7.870192     2.570045
 H    -1.928472    -8.053449     2.565398
 H    -9.775029    -4.686200    -4.482278
 O    -9.960576    -3.772189    -4.208295
 H    -9.764863    -3.203399    -4.965228
 H    -0.008641     7.930514    -3.193041
 O     0.257288     8.786589    -3.589437
 H     1.148763     8.980609    -3.231911
 H    -8.555928    -8.549612    -2.550523
 O    -9.190304    -7.831265    -2.545615
 H    -9.096489    -7.396981    -1.678466
 H     2.086860     0.683249     4.577531
 O     2.237264    -0.163704     5.039143
 H     2.488944    -0.824234     4.359598
 H    -6.544747    -0.027477    -7.572067
 O    -7.506961    -0.001961    -7.442214
 H    -7.716939     0.886431    -7.151722
 H     6.001304     4.260674    -7.267395
 O     5.418481     4.155208    -6.515455
 H     4.544628     4.562564    -6.803790
 H    -5.786958     9.910232     0.749892
 O    -5.388675     10.014770    -0.134549
 H    -5.956724     9.397461    -0.651063
 H    -0.707182    -1.190137    -5.758586
 O    -0.912811    -0.541065    -6.466084
 H    -0.165555     0.085254    -6.410760
 H     4.786028    -0.161467    -6.953086
 O     4.928200    -1.089383    -6.737172
 H     5.780352    -1.139266    -6.269059
 H     3.108049    -8.714552    -2.692497
 O     4.058616    -8.583907    -2.689480
 H     4.247430    -7.979646    -3.422643
 H    -4.179781    -0.713324    -7.868647
 O    -4.734302     0.005171    -7.528101
 H    -4.095402     0.685022    -7.214016
 H     1.158836     3.702905     6.701460
 O     1.941454     3.154479     6.905518
 H     2.719831     3.729273     6.786039
 H    -11.112245    -3.410345     0.021667
 O    -10.734310    -2.754851     0.608219
 H    -10.029034    -2.314522     0.101890
 H    -7.470543     1.421399     7.636030
 O    -7.997289     2.229691     7.557748
 H    -8.133738     2.556137     8.446628
 H     6.784313    -8.703704    -1.224517
 O     6.872158    -8.810530    -2.176669
 H     6.002293    -9.089632    -2.488824
 H     6.302879     5.576768    -0.759842
 O     6.981755     4.955362    -1.042739
 H     7.207152     4.431273    -0.247095
 H    -5.124010    -3.279237     5.841883
 O    -5.184843    -2.522250     6.465393
 H    -4.541582    -2.739475     7.162188
 H     2.567937     1.535077     7.486809
 O     3.087675     0.723855     7.394390
 H     2.789833     0.323087     6.550713
 H    -2.464969    -3.116484     7.048175
 O    -2.941263    -3.285457     7.889679
 H    -2.340835    -2.922465     8.556914
 H     5.692543     2.293475     6.678437
 O     5.460060     1.404915     6.402941
 H     4.586859     1.196745     6.796806
 H     2.300848    -4.309567     4.103935
 O     2.780890    -4.221112     4.939955
 H     3.519968    -4.848493     4.852028
 H     10.617651    -2.115547    -1.823616
 O     11.114993    -2.097809    -0.961252
 H     12.040314    -2.011501    -1.184032
 H     3.387539     8.461773    -2.827293
 O     2.673917     8.990559    -2.449523
 H     2.523971     8.625055    -1.558414
 H    -7.697655    -7.028877     0.368392
 O    -8.370456    -6.644683    -0.216876
 H    -8.375827    -5.695290     0.058490
 H    -1.305379     9.565429    -3.187606
 O    -2.251648     9.672249    -2.973011
 H    -2.322152     9.779561    -2.021836
 H     3.893615     4.221725    -3.732759
 O     3.293430     4.973198    -3.751697
 H     3.805714     5.780335    -3.536977
 H     4.783682     6.851364    -1.916732
 O     4.699058     7.061278    -2.867316
 H     5.500919     6.756139    -3.310894
 H    -0.659765     5.055789     6.137374
 O     0.088337     4.627234     5.697532
 H     0.736531     5.314588     5.411163
 H     2.892770     5.666779     5.193964
 O     2.102983     6.061884     4.795747
 H     2.069016     5.732987     3.883537
 H    -7.572302     8.372900     0.071939
 O    -7.405417     8.255346    -0.885634
 H    -7.135023     7.319000    -0.952807
 H    -0.938620    -5.183575     3.571736
 O    -0.499379    -5.060851     2.699230
 H     0.434254    -5.267652     2.792981
 H     4.415032    -1.966925     6.238063
 O     4.422574    -2.115712     5.268116
 H     3.750293    -2.805648     5.093525
 H     7.533531    -5.783321     3.143280
 O     7.888426    -5.399958     3.955167
 H     7.362846    -4.593032     4.112130
 H     9.368179    -4.334335     3.887983
 O     9.953378    -3.565150     3.754233
 H     9.645018    -2.885705     4.366376
 H     2.574621     8.092830    -7.994821
 O     2.613544     7.552658    -7.206914
 H     1.734538     7.646238    -6.765576
 H    -0.450707    -1.451646     8.123755
 O    -0.616193    -2.102933     8.819810
 H     0.133374    -2.704093     8.789334
 H     8.101893     4.954783    -2.237403
 O     8.774707     5.025420    -2.962978
 H     9.466494     5.582631    -2.606208
 H     6.105322     5.046944    -5.137638
 O     6.404043     5.458500    -4.305247
 H     7.359383     5.359984    -4.221760
 H     10.524480     2.784753    -4.169206
 O     9.798353     2.627226    -3.567732
 H     9.362834     3.492479    -3.398102
 H     3.354250    -2.321338     7.891032
 O     4.153077    -1.758793     7.894311
 H     3.818242    -0.852875     7.977458
 H    -2.270857    -2.138929    -8.764199
 O    -2.698093    -1.837458    -7.963423
 H    -2.022082    -1.341990    -7.452394
 H     4.796541     5.636804     1.577853
 O     4.628316     5.064585     2.337081
 H     3.659551     5.029057     2.439538
 H    -3.315069    -6.570804    -4.823838
 O    -2.541997    -6.007593    -4.904379
 H    -2.822256    -5.244703    -5.434550
 H    -6.888581     5.654088     4.999073
 O    -6.498694     6.502590     4.720230
 H    -6.374614     6.440606     3.747523
 H    -7.650280     3.565043     6.209178
 O    -7.420272     4.013963     5.386131
 H    -7.130561     3.307347     4.786982
 H    -7.715554     8.998703     2.600587
 O    -7.364693     9.306898     1.742723
 H    -7.923826     10.067925     1.463063
 H    -5.463813    -7.378529     1.713340
 O    -6.117365    -6.786700     1.309238
 H    -5.611251    -6.308122     0.618234
 H    -3.402624    -5.029731     7.644911
 O    -3.584181    -5.885296     7.215993
 H    -2.779040    -6.104999     6.733078
 H     9.519110     1.370563    -0.557676
 O     9.506998     2.328289    -0.737937
 H     9.807854     2.419665    -1.648094
 H    -7.625733    -4.774930     3.293744
 O    -6.685032    -4.979801     3.292508
 H    -6.519470    -5.608295     2.560821
 H     1.266530    -2.320677     6.915778
 O     1.813837    -3.029124     7.271695
 H     2.059617    -3.583405     6.514510
 H    -3.228987    -3.128555    -6.804434
 O    -3.599501    -3.783256    -6.194430
 H    -4.554856    -3.712135    -6.272438
 H    -9.153641     7.735280     3.947744
 O    -8.401842     8.314020     4.081175
 H    -7.687888     7.755246     4.449972
 H     8.162292    -1.638871    -5.186244
 O     7.223381    -1.446585    -5.205466
 H     6.800087    -2.119224    -4.639159
 H    -4.508030    -5.298732     5.806665
 O    -4.592848    -4.716616     5.026318
 H    -5.341196    -5.010924     4.487348
 N    -8.390880     11.371665     0.130451
 H    -7.451726     11.517331    -0.235821
 H    -8.826238     12.278304     0.264107
 H    -8.911823     10.879483    -0.589465
