604
grain_mol73 // -1717.106504741442 // -50.1514070419 // -744.478272393342 // -1022.77963939 // -0.048678178 // -0.584074402838 // -0.013948293438
 H    -1.790995    -0.098689     2.407326
 O    -0.814799    -0.092465     2.511365
 H    -0.564500    -0.996556     2.815104
 H    -0.318934    -1.741891    -2.948602
 O    -0.416133    -1.788299    -1.984907
 H    -1.366416    -1.682937    -1.810792
 H    -2.677314     1.866119     0.823458
 O    -2.573174     1.245159     0.082771
 H    -1.771036     1.530326    -0.391002
 H    -3.572801     2.107631    -3.065080
 O    -3.032823     2.465134    -3.808632
 H    -2.134961     2.571846    -3.477701
 H    -0.050233    -0.582789    -0.842403
 O     0.075180     0.125166    -0.181289
 H    -0.379986    -0.175611     0.616213
 H     1.079828    -1.774809    -4.844689
 O     0.134761    -1.943155    -4.695829
 H     0.023904    -2.903526    -4.762384
 H    -4.809132     2.551374    -1.337310
 O    -4.448448     1.730188    -1.725520
 H    -3.795904     1.419199    -1.054125
 H    -3.494765     3.377026     2.494551
 O    -2.778026     2.751418     2.272211
 H    -2.012466     3.065990     2.787047
 H     2.681450     0.318737    -2.888258
 O     2.054298    -0.316017    -2.485478
 H     1.162388     0.017723    -2.702277
 H    -0.992864     0.471385    -3.631401
 O    -0.184493     0.925777    -3.315082
 H    -0.439256     1.507432    -2.579861
 H     2.697394    -0.634474     0.595264
 O     2.606178    -1.360390    -0.055993
 H     2.370079    -0.947693    -0.908662
 H    -2.793775    -0.375823    -0.694066
 O    -2.917704    -0.812660    -1.547303
 H    -3.734995    -1.341856    -1.506667
 H     2.914543     1.236731    -0.714370
 O     2.102771     1.762703    -0.603408
 H     1.370803     1.125063    -0.464485
 H     0.762061     3.284423    -3.143948
 O     1.670482     3.073611    -2.890826
 H     1.642625     2.588841    -2.045891
 H     0.108583    -3.959341    -0.686869
 O    -0.120338    -4.622782    -1.376429
 H    -0.922296    -5.069829    -1.021275
 H    -6.222157     2.194366     2.912890
 O    -6.291063     2.373810     3.885003
 H    -7.068130     1.859109     4.192582
 H     1.082661    -3.765297     1.197708
 O     0.697044    -3.093170     0.606525
 H     1.395866    -2.442203     0.391860
 H    -2.713946     5.327752    -0.927462
 O    -2.562752     4.511564    -0.414755
 H    -3.462968     4.158640    -0.253657
 H    -5.525219    -1.183716     1.495691
 O    -5.216320    -0.538674     0.825649
 H    -5.317208    -0.970311    -0.027880
 H    -0.431347    -3.265438     2.915277
 O    -0.116666    -2.474375     3.384644
 H     0.834075    -2.388761     3.205020
 H     5.346640     0.965932    -1.024473
 O     4.546011     0.446883    -0.862267
 H     4.745126     0.005214    -0.006359
 H     0.805287     2.365330     1.122107
 O     0.770086     2.000878     2.015903
 H     0.141561     1.256091     2.030054
 H     4.545825    -0.512545    -2.251939
 O     4.757327    -0.980221    -3.091784
 H     5.265649    -0.330098    -3.620293
 H     3.191669     3.236967    -0.843296
 O     4.078037     3.617950    -0.788777
 H     4.575250     3.338009    -1.580961
 H    -5.807762    -1.300275    -2.104071
 O    -5.304792    -2.024193    -1.671226
 H    -5.217804    -2.723556    -2.341834
 H    -4.976340    -3.975464     0.982271
 O    -5.645707    -3.323211     0.702270
 H    -5.386709    -3.017006    -0.177422
 H     2.899315     2.209456    -3.549618
 O     3.563343     1.520427    -3.758214
 H     3.657148     1.508837    -4.716335
 H    -5.118095     3.869705     3.700037
 O    -4.518639     4.459912     3.229436
 H    -3.998769     4.960786     3.893179
 H     0.830346     1.142325    -4.698660
 O     1.339553     1.039115    -5.528903
 H     1.924386     0.268222    -5.376467
 H     1.262059     5.844135    -2.107275
 O     2.036356     5.487078    -1.639467
 H     2.596491     5.046583    -2.308759
 H    -2.765760    -3.350781    -1.979480
 O    -2.942189    -3.626326    -1.063917
 H    -3.720347    -4.201252    -1.070632
 H     2.356918     5.263969    -4.349796
 O     1.494500     5.383852    -4.783923
 H     1.484613     4.706808    -5.486913
 H     7.879066     1.711229    -0.681967
 O     7.094848     1.379652    -1.156584
 H     7.454896     0.704813    -1.767148
 H     4.604422     2.683406     0.514802
 O     4.909886     2.293913     1.359243
 H     4.837842     3.026519     2.005945
 H     1.103183    -3.121570    -2.269750
 O     1.974928    -2.975490    -2.665474
 H     2.083459    -2.001185    -2.665997
 H     1.349474     4.608246    -0.447168
 O     0.864078     4.126473     0.260242
 H     0.190231     4.740111     0.604393
 H    -5.700324     1.094005     1.110267
 O    -6.170822     1.928032     1.306768
 H    -7.103664     1.718017     1.045847
 H    -2.284440    -2.587934     0.102983
 O    -1.811302    -2.046492     0.763556
 H    -0.909900    -2.408771     0.771981
 H    -3.697059    -0.348757     4.153910
 O    -3.725486    -0.538564     5.123623
 H    -4.490244    -1.142237     5.313064
 H    -6.133434    -2.868374     2.835664
 O    -5.717211    -2.000755     3.014577
 H    -4.763739    -2.221060     3.074063
 H    -2.740558    -0.242662    -3.101121
 O    -2.456013    -0.285818    -4.041381
 H    -2.317292    -1.253605    -4.143763
 H    -3.368263    -3.201531    -3.929642
 O    -2.506485    -2.846594    -3.654032
 H    -1.821806    -3.488985    -3.925950
 H     3.353208    -1.093834    -4.246380
 O     2.818312    -1.179735    -5.058615
 H     3.465075    -1.337957    -5.765128
 H     4.938907     2.447143    -6.451912
 O     4.392147     1.636602    -6.503507
 H     3.569979     1.901629    -6.924156
 H    -4.258703     0.872034     5.682837
 O    -4.720630     1.703780     5.954798
 H    -5.267400     1.959022     5.182966
 H    -3.948415    -0.071439     1.881298
 O    -3.418793     0.207009     2.648157
 H    -3.317443     1.179380     2.599601
 H    -5.677030     0.774222    -2.387312
 O    -6.220427     0.135062    -2.893167
 H    -5.774044     0.058274    -3.758483
 H     1.963992    -3.723715    -4.229026
 O     1.919223    -4.155122    -5.104812
 H     1.493937    -5.013838    -4.948246
 H     4.467057    -3.629810    -0.684825
 O     4.747745    -2.902949    -0.086121
 H     3.997944    -2.262288    -0.087074
 H    -0.107400     3.060278    -0.827419
 O    -0.850884     2.715598    -1.350010
 H    -1.555129     3.383643    -1.215341
 H     1.868594     4.310976     1.724255
 O     2.305926     4.408050     2.589892
 H     2.084992     3.607265     3.090737
 H     3.739003     1.050433     1.744278
 O     2.953458     0.482571     1.866364
 H     2.189508     1.078275     1.994158
 H     3.164525    -3.951723    -2.162489
 O     3.844727    -4.602277    -1.859664
 H     4.539918    -4.594797    -2.536100
 H     5.056643    -3.730199    -4.559590
 O     5.472077    -3.454254    -3.706092
 H     5.080164    -2.595664    -3.446342
 H    -0.970544     5.012271     2.235394
 O    -1.116967     5.595162     1.454090
 H    -1.749246     5.131891     0.846247
 H    -5.577155     3.284778     0.426447
 O    -5.097992     3.802317    -0.249664
 H    -5.529352     4.671054    -0.383582
 H     4.920868    -4.052229     2.878983
 O     4.185854    -3.838623     2.298142
 H     4.545121    -3.528798     1.436414
 H     5.832177    -1.454267     1.406008
 O     5.452041    -0.553770     1.417101
 H     6.246225     0.008902     1.502555
 H     1.596572    -6.605379    -3.263298
 O     1.433515    -6.787543    -4.213886
 H     2.316241    -6.866657    -4.604408
 H    -7.242608    -3.483459     0.463664
 O    -8.206174    -3.453941     0.243545
 H    -8.679700    -3.269241     1.082830
 H     3.167221    -2.583068     2.762555
 O     2.491322    -1.906773     2.957236
 H     2.741810    -1.089548     2.489618
 H    -1.932098     2.554343     5.118034
 O    -2.638111     3.208680     5.270742
 H    -3.401085     2.708247     5.619564
 H    -0.837969     0.789989     3.975507
 O    -0.724770     1.310072     4.802499
 H     0.125388     1.752117     4.703933
 H     0.557248     3.677858    -6.820410
 O     1.504495     3.455342    -6.684040
 H     1.491694     2.588993    -6.234645
 H     7.027067    -3.153223     4.740096
 O     6.274466    -3.572819     4.258955
 H     5.465146    -3.217712     4.697768
 H     8.039771     1.276571     1.604356
 O     7.930135     0.340917     1.858964
 H     8.420509    -0.202251     1.214221
 H    -3.928821    -0.240507    -4.794733
 O    -4.849726    -0.250776    -5.152931
 H    -4.808371     0.154134    -6.040850
 H     6.517437    -1.464168    -2.100764
 O     6.900672    -1.958454    -1.371027
 H     6.151156    -2.236924    -0.811332
 H     4.631631    -1.068792     4.481928
 O     5.070019    -0.318245     4.047136
 H     5.036666    -0.448972     3.075665
 H     0.033508     3.215923     2.970560
 O    -0.589819     3.871528     3.342460
 H    -0.297274     4.093903     4.247399
 H     8.283647    -1.348725    -0.601414
 O     9.067833    -1.006038    -0.118297
 H     9.754989    -1.681255    -0.202093
 H     9.532044    -4.057497     2.197305
 O     9.261403    -3.832632     1.280669
 H     10.043094    -3.664470     0.743191
 H    -2.486922    -2.668110     3.673671
 O    -3.093891    -2.722667     2.925964
 H    -2.614587    -2.372786     2.132497
 H    -1.941691     1.044928    -6.320159
 O    -2.553840     1.806398    -6.348487
 H    -2.824815     1.963624    -5.419961
 H    -0.970268     4.062621    -5.423605
 O    -1.069649     4.063285    -6.404136
 H    -1.671633     3.319827    -6.587009
 H    -4.642951    -6.087358    -1.499626
 O    -5.110282    -5.345044    -1.087983
 H    -5.860466    -5.134311    -1.684681
 H     2.650837    -5.773870    -1.664745
 O     1.833389    -6.309478    -1.616862
 H     1.079168    -5.668638    -1.500333
 H     3.389943    -4.110088    -5.739304
 O     4.356229    -4.113214    -5.983244
 H     4.498537    -3.358351    -6.560721
 H     7.552238     3.253669     2.312610
 O     7.483491     2.927859     1.406256
 H     6.548292     2.618373     1.321705
 H     6.600941    -3.981963     0.323221
 O     7.077845    -4.794622     0.085481
 H     7.959434    -4.663743     0.487064
 H    -7.467871    -4.169362    -2.814107
 O    -7.262425    -5.110422    -2.617204
 H    -7.905724    -5.391935    -1.939165
 H    -4.312054     6.710734     5.023955
 O    -3.425689     6.368004     4.801271
 H    -2.967529     6.123001     5.619581
 H     7.275640     3.256373     5.076980
 O     7.287047     2.884703     4.185234
 H     7.518666     1.942889     4.295959
 H    -5.916767     0.808323     6.788947
 O    -6.732004     0.322360     7.064437
 H    -6.508261    -0.612151     6.905084
 H    -0.442871    -4.732372    -3.108721
 O    -0.585212    -4.601046    -4.063805
 H    -1.186689    -5.290066    -4.374440
 H     6.666903    -0.019498     4.458453
 O     7.641268     0.153532     4.443854
 H     7.876234     0.138577     3.489156
 H     4.824888    -6.570815    -4.019667
 O     4.144135    -6.712339    -4.712420
 H     4.298236    -6.024559    -5.368575
 H    -5.768327    -1.568422    -5.471126
 O    -6.395829    -2.315970    -5.622524
 H    -7.233888    -1.868920    -5.909245
 H    -7.867875     0.697317     5.826158
 O    -8.328268     1.066535     5.026037
 H    -9.111158     1.515782     5.360329
 H    -5.116810     5.784588     2.331953
 O    -5.329263     6.709626     2.090957
 H    -4.463291     7.167118     2.109318
 H     5.954652     1.642788    -3.845864
 O     6.190239     0.873240    -4.408770
 H     5.718859     1.001867    -5.234317
 H    -5.696906     6.573523     0.425235
 O    -5.704835     6.381638    -0.535973
 H    -4.802732     6.611001    -0.843787
 H    -0.278217    -7.312640    -3.426296
 O    -0.995832    -7.444776    -2.795917
 H    -0.623722    -7.824955    -1.991476
 H    -2.639312    -1.713750     5.374478
 O    -2.002257    -2.456069     5.508411
 H    -1.164735    -2.011741     5.740042
 H     7.523135    -4.568262    -1.556864
 O     7.663748    -4.528607    -2.527197
 H     6.908392    -4.023078    -2.874106
 H    -8.747419    -2.625604    -3.611964
 O    -7.832559    -2.575362    -3.251399
 H    -7.266533    -2.369415    -4.010919
 H     8.881544    -3.358291    -2.845219
 O     9.531520    -2.640886    -3.001007
 H     9.044603    -1.804587    -2.889518
 H    -5.042748    -4.719960    -3.894331
 O    -4.991222    -3.762577    -3.732674
 H    -5.487081    -3.336431    -4.442715
 H    -3.441883     4.216654    -3.505915
 O    -3.141976     5.052399    -3.112996
 H    -3.403896     5.774891    -3.684910
 H    -0.011159     4.898656    -3.922639
 O    -0.684691     4.213504    -3.764140
 H    -1.468815     4.660903    -3.386435
 H    -2.094047    -4.202044     5.144616
 O    -2.390831    -5.048666     4.775232
 H    -3.314001    -4.882718     4.514890
 H    -2.107701     8.567806    -3.556098
 O    -2.326836     7.624109    -3.697456
 H    -2.111551     7.414051    -4.632805
 H    -2.870664     7.276467     3.376983
 O    -2.770086     7.502154     2.436844
 H    -2.178396     6.811013     2.076042
 H     4.789781     1.340281     4.313417
 O     4.656272     2.302818     4.173364
 H     5.542233     2.654425     3.964456
 H     7.748782    -2.104390     6.331495
 O     8.205782    -2.284628     5.486773
 H     8.190107    -1.421031     5.028715
 H     5.863172    -1.866940     7.811326
 O     6.586427    -1.345845     7.448801
 H     6.152263    -0.571054     7.026738
 H    -1.430525     5.905013    -6.345245
 O    -1.552052     6.841508    -6.125624
 H    -0.671529     7.252602    -6.189209
 H    -8.273577    -0.096468     3.744503
 O    -8.053614    -0.601133     2.930046
 H    -7.144539    -0.948162     3.048585
 H    -8.465842     0.308783    -0.017869
 O    -8.503159     0.934871     0.723370
 H    -8.499473     0.377387     1.520855
 H     0.737507    -0.737328     5.873236
 O    -0.109024    -0.811712     6.372946
 H    -0.589073    -0.018352     6.077688
 H    -0.244469     7.083459    -1.474834
 O    -0.188190     6.725760    -2.383696
 H    -1.028968     6.954848    -2.840171
 H     0.469616    -8.037385     0.309891
 O    -0.435473    -8.259234     0.042814
 H    -0.907572    -8.340223     0.899826
 H     1.993026     2.473928     5.336938
 O     2.019125     2.221084     4.389736
 H     2.965749     2.234458     4.158595
 H    -7.902758    -5.155131    -5.894463
 O    -6.996024    -5.019889    -6.215335
 H    -6.825805    -4.072789    -6.128250
 H     2.925636    -7.655356     0.858765
 O     2.047346    -7.270400     0.805755
 H     1.992225    -6.905365    -0.114812
 H     3.650314     5.861994    -7.188291
 O     3.787546     4.901797    -7.335946
 H     2.944884     4.461901    -7.143923
 H    -0.347551     6.981184     0.690582
 O    -0.014516     7.698501     0.125309
 H    -0.677789     8.401017     0.183639
 H     4.432408     3.410895     5.402345
 O     4.342014     4.037270     6.160567
 H     5.215808     4.070430     6.558882
 H     7.586350     2.448070     7.030045
 O     7.076440     3.299004     6.968482
 H     7.564695     3.934469     7.490746
 H     3.971624    -8.037060    -1.218865
 O     4.486270    -7.532479    -0.567735
 H     4.954305    -6.878227    -1.111478
 H     6.710098    -5.982820    -2.748250
 O     5.929526    -6.567515    -2.734859
 H     6.248078    -7.486893    -2.687649
 H    -9.059265    -1.936464     2.662493
 O    -9.529909    -2.790883     2.469390
 H    -10.285749    -2.537970     1.907314
 H    -2.484393     8.773868     1.187946
 O    -2.315645     9.154960     0.310086
 H    -3.097403     9.736675     0.139570
 H     7.983891     0.274253     7.519375
 O     8.352065     0.981254     6.978357
 H     8.217857     0.685508     6.061303
 H    -2.400499     4.934034     7.735771
 O    -2.091943     5.172750     6.862839
 H    -2.288275     4.388683     6.267210
 H    -6.296834    -6.161922    -3.689388
 O    -5.617226    -6.350522    -4.362003
 H    -6.033484    -6.030842    -5.191583
 H     6.713750    -2.997340     2.715111
 O     6.862848    -2.712160     1.794267
 H     7.812224    -2.801970     1.626039
 H     2.520902     6.690630    -0.604476
 O     2.776728     7.407142     0.018802
 H     1.932256     7.751157     0.335301
 H    -4.224097    -7.156978    -3.226463
 O    -3.680843    -7.236754    -2.433955
 H    -2.766272    -7.366248    -2.743359
 H     1.182793     6.866639    -5.432484
 O     1.037376     7.754363    -5.835014
 H     1.049645     8.363793    -5.068185
 H    -8.223680    -1.402209    -1.925124
 O    -8.531458    -1.154695    -1.039509
 H    -8.329640    -1.961416    -0.515548
 H    -3.036258     7.257728    -2.070632
 O    -3.158190     7.051494    -1.134168
 H    -2.851931     7.833561    -0.628768
 H     2.719541    -4.678543     2.214277
 O     1.797872    -5.003039     2.189839
 H     1.846644    -5.881722     1.759969
 H    -8.680879    -0.408706    -5.266715
 O    -8.585545    -0.963319    -6.076099
 H    -8.272485    -0.348334    -6.762780
 H     7.667383    -0.072895    -3.771250
 O     8.294939    -0.144899    -3.033509
 H     8.985666     0.512791    -3.197051
 H     4.393678     6.597543     0.183656
 O     5.093921     5.954242    -0.011799
 H     4.623668     5.133787    -0.280051
 H    -7.834137     0.426463    -3.403484
 O    -8.721485     0.470767    -3.815974
 H    -9.345151     0.231016    -3.129149
 H     6.311589     3.780634    -3.058190
 O     5.813932     2.995162    -2.764638
 H     6.377358     2.539393    -2.095202
 H    -1.432099    -6.880921    -0.167261
 O    -2.028452    -6.122259    -0.332050
 H    -2.612182    -6.393841    -1.047013
 H    -4.092953    -7.729921     0.646482
 O    -4.336035    -7.495615     1.545173
 H    -4.102421    -6.541385     1.642703
 H    -2.950451    -5.054507     0.926651
 O    -3.673652    -4.941056     1.564600
 H    -3.388014    -4.247993     2.194096
 H     5.065986    -6.443299     4.709508
 O     4.329010    -6.168619     4.160653
 H     4.644237    -6.238594     3.243954
 H    -9.557709    -5.875215    -4.317265
 O    -9.543116    -5.390078    -5.174078
 H    -10.180860    -5.830937    -5.735811
 H     6.177823    -5.822172     1.143327
 O     5.639750    -6.418990     1.703330
 H     5.187019    -6.982129     1.064339
 H    -1.518834    -6.784797     2.308879
 O    -1.681361    -7.743048     2.331940
 H    -2.643580    -7.845957     2.299766
 H    -10.005846    -3.683154    -4.844606
 O    -10.122002    -2.763380    -4.552523
 H    -9.861251    -2.195851    -5.290605
 H     0.737652     8.043350    -3.031507
 O     1.084087     8.882339    -3.401192
 H     1.979092     8.993745    -3.018446
 H    -9.159584    -7.676098    -2.977224
 O    -9.732669    -6.907997    -2.969070
 H    -9.624387    -6.501916    -2.090128
 H     2.030435     0.479268     4.611765
 O     2.098288    -0.387310     5.056320
 H     2.311712    -1.051248     4.367051
 H    -6.324896     0.755725    -7.747110
 O    -7.284621     0.858051    -7.638530
 H    -7.427660     1.754464    -7.332334
 H     6.521895     3.974786    -7.052088
 O     5.913888     3.901781    -6.316411
 H     5.084115     4.386840    -6.615033
 H    -5.102775     10.378385     0.807506
 O    -4.592342     10.412707    -0.012610
 H    -5.173608     9.959550    -0.654890
 H    -0.650574    -0.929155    -5.827932
 O    -0.783858    -0.250263    -6.524581
 H     0.010839     0.310563    -6.437081
 H     4.936831    -0.336547    -6.871039
 O     4.996348    -1.277551    -6.673921
 H     5.829544    -1.408334    -6.187685
 H     2.450353    -8.810381    -2.854938
 O     3.408099    -8.759676    -2.826621
 H     3.664747    -8.157441    -3.540614
 H    -4.017998    -0.118577    -8.005521
 O    -4.519551     0.635818    -7.660612
 H    -3.834746     1.253381    -7.316018
 H     1.303455     3.518573     6.784527
 O     2.032647     2.902582     6.993750
 H     2.858685     3.412928     6.905618
 H    -11.345043    -2.397922    -0.342698
 O    -10.922744    -1.803099     0.277469
 H    -10.177908    -1.399714    -0.201982
 H    -7.521044     1.944097     7.443333
 O    -7.963185     2.805215     7.395178
 H    -8.085691     3.103037     8.296142
 H     6.077167    -9.138291    -1.302505
 O     6.179579    -9.231498    -2.254628
 H     5.297616    -9.430030    -2.593335
 H     6.769392     5.119009    -0.509914
 O     7.401356     4.449456    -0.791664
 H     7.562620     3.891240    -0.003730
 H    -5.464643    -2.978530     5.648022
 O    -5.479538    -2.175336     6.232820
 H    -4.890397    -2.443568     6.965702
 H     2.508133     1.224648     7.550236
 O     2.960509     0.374784     7.450838
 H     2.651916     0.018995     6.590995
 H    -2.878652    -2.979008     6.886387
 O    -3.388678    -3.129840     7.711641
 H    -2.778375    -2.830748     8.401349
 H     5.703957     1.737000     6.832237
 O     5.405464     0.877041     6.530776
 H     4.508445     0.734165     6.899282
 H     1.842186    -4.502296     4.024341
 O     2.306580    -4.472791     4.873269
 H     2.993378    -5.157282     4.787218
 H     10.457062    -2.881425    -1.656376
 O     10.932534    -2.924135    -0.782604
 H     11.867081    -2.910262    -0.981933
 H     4.155962     8.281351    -2.574590
 O     3.479978     8.859759    -2.200385
 H     3.277701     8.488450    -1.322190
 H    -8.250652    -6.296457    -0.003542
 O    -8.876090    -5.845098    -0.593358
 H    -8.809081    -4.904538    -0.296936
 H    -0.418481     9.780733    -3.016690
 O    -1.357876     9.960019    -2.821858
 H    -1.444114     10.054076    -1.870697
 H     4.331219     4.034620    -3.568955
 O     3.795923     4.833679    -3.583361
 H     4.367758     5.590553    -3.338206
 H     5.390644     6.540722    -1.670732
 O     5.347405     6.777467    -2.617728
 H     6.131991     6.416291    -3.049944
 H    -0.382285     5.030153     6.211188
 O     0.338791     4.550624     5.778933
 H     1.048492     5.187663     5.523684
 H     3.231233     5.363628     5.364293
 O     2.486931     5.831714     4.957638
 H     2.448661     5.526816     4.037263
 H    -6.950625     9.136855    -0.092863
 O    -6.643794     8.931650    -0.985830
 H    -6.431458     7.981577    -0.978182
 H    -1.442239    -5.092250     3.397769
 O    -0.974878    -4.988140     2.537682
 H    -0.063573    -5.272542     2.646862
 H     4.089138    -2.391293     6.261682
 O     4.108375    -2.519086     5.288952
 H     3.385844    -3.146570     5.082528
 H     6.956920    -6.386246     3.149626
 O     7.321676    -6.051785     3.978586
 H     6.861344    -5.207215     4.142278
 H     8.886089    -5.111947     3.970747
 O     9.536151    -4.391547     3.868783
 H     9.270031    -3.702163     4.489569
 H     3.443812     8.094100    -7.766948
 O     3.418547     7.535363    -6.991518
 H     2.539563     7.692393    -6.568216
 H    -0.763357    -1.513139     8.046691
 O    -0.999941    -2.164363     8.722032
 H    -0.300897    -2.823744     8.695461
 H     8.546978     4.381418    -1.960017
 O     9.241339     4.411256    -2.667871
 H     9.967653     4.901240    -2.282234
 H     6.637607     4.702976    -4.902535
 O     6.948776     5.069500    -4.053779
 H     7.890353     4.890050    -3.951115
 H     10.828679     2.059375    -3.886559
 O     10.077463     1.949882    -3.305576
 H     9.710965     2.844558    -3.125622
 H     2.961466    -2.691730     7.881027
 O     3.803850    -2.198125     7.916131
 H     3.543513    -1.269341     8.012716
 H    -2.212161    -1.678257    -8.890619
 O    -2.632679    -1.360726    -8.092508
 H    -1.931095    -0.933945    -7.554677
 H     5.215494     5.253510     1.793265
 O     4.981580     4.681050     2.534757
 H     4.010948     4.724241     2.613852
 H    -3.718131    -6.092487    -5.081847
 O    -2.899287    -5.594076    -5.130629
 H    -3.101815    -4.799168    -5.649098
 H    -6.509844     6.171702     4.944521
 O    -6.052080     6.995087     4.691473
 H    -5.900554     6.934248     3.722390
 H    -7.470040     4.129152     6.085772
 O    -7.181770     4.576095     5.279798
 H    -6.939291     3.858852     4.671341
 H    -7.083091     9.579036     2.550980
 O    -6.813018     9.988853     1.703618
 H    -7.264449     10.832770     1.665886
 H    -6.088047    -6.859874     1.382781
 O    -6.680160    -6.205221     0.981148
 H    -6.120322    -5.756646     0.311605
 H    -3.989284    -4.821630     7.412913
 O    -4.230687    -5.648977     6.958238
 H    -3.432120    -5.925946     6.494007
 H     9.620027     0.655732    -0.333701
 O     9.691881     1.614833    -0.491218
 H     10.021747     1.700746    -1.391814
 H    -8.120226    -4.168962     2.887050
 O    -7.188707    -4.437264     2.968492
 H    -7.027939    -5.076649     2.240569
 H     0.906379    -2.495644     6.857898
 O     1.383167    -3.255274     7.209696
 H     1.601878    -3.811088     6.445331
 H    -3.297474    -2.627505    -6.977142
 O    -3.736218    -3.262138    -6.391613
 H    -4.680084    -3.109384    -6.489874
 H    -8.569756     8.453443     3.899002
 O    -7.771231     8.966418     4.032067
 H    -7.114238     8.347463     4.415184
 H     8.134232    -2.128516    -5.062428
 O     7.215239    -1.858286    -5.098671
 H     6.723685    -2.505400    -4.558405
 H    -5.070252    -5.057784     5.548690
 O    -5.139943    -4.443442     4.785557
 H    -5.956536    -4.670965     4.299691
 N    -8.830641    -2.302193     5.938958
 H    -7.855627    -2.591954     5.941204
 H    -9.225918    -2.603696     5.050703
 H    -9.288391    -2.856178     6.657653
