604
grain_mol47 // -2002.529432824777 // -70.454847294 // -1050.202440168777 // -1022.78183995 // -0.0693578025 // -0.58450803534 // -0.019794950178
 H    -1.775578    -0.080939     2.431891
 O    -0.798551    -0.061850     2.500883
 H    -0.528609    -0.949472     2.835624
 H    -0.386796    -1.838419    -2.908822
 O    -0.463982    -1.860962    -1.942558
 H    -1.411898    -1.766474    -1.751258
 H    -2.725631     1.830405     0.816505
 O    -2.631024     1.193793     0.088433
 H    -1.839536     1.473670    -0.406173
 H    -3.702917     1.955630    -3.059021
 O    -3.184055     2.303952    -3.821398
 H    -2.281115     2.430981    -3.511974
 H    -0.095187    -0.620855    -0.836729
 O     0.029419     0.109052    -0.200229
 H    -0.398566    -0.178118     0.618086
 H     0.975077    -1.898722    -4.830309
 O     0.035669    -2.077602    -4.659376
 H    -0.060786    -3.041088    -4.697890
 H    -4.911781     2.425742    -1.319432
 O    -4.547123     1.599760    -1.692031
 H    -3.874651     1.317066    -1.027272
 H    -3.532946     3.373385     2.461254
 O    -2.813268     2.750491     2.245738
 H    -2.040706     3.087913     2.736567
 H     2.581103     0.269843    -2.961000
 O     1.972104    -0.364120    -2.530352
 H     1.070872    -0.049941    -2.736831
 H    -1.109058     0.345727    -3.634074
 O    -0.302482     0.821834    -3.346820
 H    -0.551345     1.416788    -2.620334
 H     2.680312    -0.592861     0.545806
 O     2.588568    -1.336017    -0.085769
 H     2.328879    -0.949054    -0.943360
 H    -2.836193    -0.454825    -0.639255
 O    -2.972949    -0.910995    -1.480218
 H    -3.778639    -1.454396    -1.408998
 H     2.841759     1.247105    -0.816113
 O     2.023876     1.763416    -0.704326
 H     1.305106     1.118271    -0.532527
 H     0.609712     3.196759    -3.254237
 O     1.526354     3.008193    -3.014040
 H     1.523485     2.544164    -2.156855
 H     0.121417    -3.989416    -0.599013
 O    -0.111296    -4.673507    -1.267345
 H    -0.898216    -5.123793    -0.883932
 H    -6.237055     2.158594     2.959076
 O    -6.304951     2.362952     3.929704
 H    -7.055373     1.831744     4.261419
 H     1.127425    -3.730285     1.260344
 O     0.720291    -3.081524     0.657251
 H     1.404107    -2.424458     0.415132
 H    -2.854261     5.243743    -1.023163
 O    -2.680163     4.444611    -0.491259
 H    -3.570422     4.080889    -0.304336
 H    -5.509671    -1.247510     1.620971
 O    -5.232795    -0.609706     0.929188
 H    -5.336847    -1.067165     0.089312
 H    -0.358345    -3.212356     2.991706
 O    -0.050944    -2.402254     3.431032
 H     0.896441    -2.306490     3.240035
 H     5.271796     1.006252    -1.168096
 O     4.482687     0.479504    -0.977151
 H     4.705272     0.063000    -0.114178
 H     0.749960     2.387648     1.031941
 O     0.738542     2.049857     1.936483
 H     0.123734     1.294522     1.986869
 H     4.470617    -0.516056    -2.340774
 O     4.672656    -1.001735    -3.172842
 H     5.160441    -0.357920    -3.727582
 H     3.084664     3.246704    -1.001927
 O     3.964989     3.644481    -0.976070
 H     4.451483     3.350693    -1.769886
 H    -5.864203    -1.459838    -1.966934
 O    -5.341382    -2.163503    -1.524913
 H    -5.255857    -2.879483    -2.178046
 H    -4.929951    -4.039503     1.172618
 O    -5.613418    -3.404093     0.887415
 H    -5.376213    -3.120651    -0.005814
 H     2.755625     2.145870    -3.675097
 O     3.426573     1.462359    -3.879339
 H     3.501387     1.426745    -4.838499
 H    -5.141223     3.872989     3.692474
 O    -4.561638     4.457529     3.193416
 H    -4.035979     4.988836     3.828852
 H     0.681961     1.016984    -4.754768
 O     1.176216     0.900275    -5.592224
 H     1.776303     0.142749    -5.431596
 H     1.089355     5.790574    -2.295021
 O     1.878288     5.458841    -1.833354
 H     2.432237     5.008787    -2.501534
 H    -2.787706    -3.459536    -1.850247
 O    -2.942977    -3.712353    -0.924470
 H    -3.710264    -4.301170    -0.900341
 H     2.148629     5.169491    -4.542447
 O     1.276023     5.264896    -4.962247
 H     1.263318     4.569550    -5.647161
 H     7.797984     1.799454    -0.895744
 O     7.010150     1.444127    -1.346562
 H     7.368768     0.758568    -1.945897
 H     4.532415     2.752050     0.340834
 O     4.861389     2.389760     1.188369
 H     4.789446     3.136834     1.818119
 H     1.070922    -3.177710    -2.221980
 O     1.931594    -3.028326    -2.640132
 H     2.024779    -2.052857    -2.666793
 H     1.229072     4.600162    -0.605687
 O     0.764318     4.129713     0.122795
 H     0.089025     4.741881     0.465155
 H    -5.730161     1.017936     1.184699
 O    -6.212806     1.847456     1.376072
 H    -7.145317     1.616412     1.131803
 H    -2.277457    -2.637166     0.202557
 O    -1.801906    -2.069328     0.838348
 H    -0.894172    -2.415723     0.840800
 H    -3.749203    -0.362217     4.203376
 O    -3.784502    -0.478895     5.183899
 H    -4.520585    -1.105145     5.391111
 H    -6.079905    -2.861786     3.142551
 O    -5.632035    -2.004833     3.238706
 H    -4.679941    -2.236466     3.236691
 H    -2.834181    -0.381139    -3.050849
 O    -2.568433    -0.444104    -3.995455
 H    -2.415532    -1.411975    -4.075498
 H    -3.430534    -3.370027    -3.790546
 O    -2.569499    -2.994087    -3.542092
 H    -1.879806    -3.633093    -3.809857
 H     3.248264    -1.167247    -4.295518
 O     2.699183    -1.281952    -5.094716
 H     3.334570    -1.449091    -5.809428
 H     4.733761     2.339193    -6.622796
 O     4.199120     1.519273    -6.642922
 H     3.364626     1.760527    -7.053430
 H    -4.295489     0.955324     5.665137
 O    -4.698420     1.810452     6.000716
 H    -5.279140     2.067611     5.250241
 H    -3.944922    -0.099021     1.947393
 O    -3.412170     0.208975     2.700627
 H    -3.317347     1.179900     2.619654
 H    -5.771384     0.608433    -2.305489
 O    -6.315962    -0.050731    -2.783487
 H    -5.884807    -0.144637    -3.654973
 H     1.902215    -3.816989    -4.182684
 O     1.846940    -4.271590    -5.046138
 H     1.439208    -5.132675    -4.858713
 H     4.472484    -3.591815    -0.692805
 O     4.753877    -2.844692    -0.120266
 H     3.993362    -2.216737    -0.120927
 H    -0.210054     3.019551    -0.916036
 O    -0.958224     2.650772    -1.415105
 H    -1.669912     3.310844    -1.283431
 H     1.795280     4.366885     1.562974
 O     2.247330     4.495826     2.416480
 H     2.050016     3.704737     2.943294
 H     3.717343     1.138608     1.629074
 O     2.943384     0.562262     1.779627
 H     2.172486     1.148272     1.909882
 H     3.146529    -3.972476    -2.135373
 O     3.842735    -4.604622    -1.830129
 H     4.524497    -4.603656    -2.520025
 H     4.987447    -3.784034    -4.574915
 O     5.415484    -3.479251    -3.737721
 H     5.014621    -2.620739    -3.491709
 H    -1.041685     5.038376     2.111303
 O    -1.218197     5.600861     1.320547
 H    -1.851257     5.109656     0.736284
 H    -5.658040     3.194784     0.442695
 O    -5.200995     3.700268    -0.255916
 H    -5.647297     4.559086    -0.405440
 H     5.002576    -3.913993     2.871511
 O     4.253964    -3.729994     2.297990
 H     4.591551    -3.434843     1.422963
 H     5.843004    -1.341935     1.313525
 O     5.449282    -0.447263     1.307541
 H     6.235799     0.129388     1.364098
 H     1.599764    -6.677665    -3.136101
 O     1.421201    -6.886944    -4.078444
 H     2.297422    -6.962786    -4.483977
 H    -7.211943    -3.598610     0.684216
 O    -8.179137    -3.586356     0.479407
 H    -8.640980    -3.399934     1.325418
 H     3.223919    -2.476976     2.751418
 O     2.540579    -1.807358     2.940274
 H     2.769345    -0.997785     2.450086
 H    -1.864697     2.701903     5.015499
 O    -2.565173     3.328476     5.313573
 H    -3.332223     2.773207     5.576254
 H    -0.766856     0.890925     3.951369
 O    -0.630829     1.508731     4.700902
 H     0.244408     1.880242     4.516296
 H     0.326544     3.491802    -6.935093
 O     1.279645     3.287921    -6.811721
 H     1.289751     2.433290    -6.340175
 H     7.129537    -2.935131     4.665948
 O     6.375133    -3.378465     4.210238
 H     5.568060    -3.025000     4.656614
 H     8.010711     1.426978     1.396881
 O     7.921297     0.496844     1.677787
 H     8.407073    -0.055551     1.037505
 H    -4.055622    -0.441768    -4.719389
 O    -4.983387    -0.474766    -5.058560
 H    -4.965552    -0.093075    -5.957497
 H     6.459735    -1.432400    -2.204868
 O     6.865323    -1.901475    -1.470655
 H     6.131424    -2.177020    -0.888940
 H     4.695433    -0.893833     4.403681
 O     5.115984    -0.149729     3.939733
 H     5.063463    -0.306741     2.973380
 H    -0.000796     3.274553     2.873442
 O    -0.623318     3.937131     3.235907
 H    -0.320518     4.177411     4.132082
 H     8.252808    -1.250805    -0.744619
 O     9.041108    -0.883093    -0.287166
 H     9.736834    -1.549997    -0.366396
 H     9.599016    -3.865984     2.097582
 O     9.307274    -3.669395     1.180820
 H     10.075537    -3.503133     0.623871
 H    -2.413563    -2.623700     3.779802
 O    -3.034571    -2.702090     3.044595
 H    -2.571827    -2.370543     2.234148
 H    -2.119420     0.834454    -6.317302
 O    -2.744256     1.585391    -6.352861
 H    -2.999347     1.762336    -5.423491
 H    -1.179232     3.889192    -5.518312
 O    -1.298418     3.863250    -6.496266
 H    -1.891252     3.105537    -6.647892
 H    -4.610876    -6.211013    -1.261435
 O    -5.081816    -5.464956    -0.860712
 H    -5.847018    -5.282240    -1.447265
 H     2.671723    -5.788700    -1.580803
 O     1.863965    -6.335499    -1.503884
 H     1.102166    -5.703562    -1.387703
 H     3.304063    -4.220475    -5.710730
 O     4.265229    -4.215055    -5.974203
 H     4.384125    -3.473172    -6.573362
 H     7.505601     3.413590     2.063955
 O     7.424093     3.064394     1.167398
 H     6.492612     2.737649     1.109893
 H     6.630998    -3.884690     0.281196
 O     7.116527    -4.695253     0.053735
 H     8.003272    -4.540636     0.434959
 H    -7.492087    -4.371331    -2.567173
 O    -7.267873    -5.303763    -2.351959
 H    -7.892103    -5.578265    -1.653310
 H    -4.355966     6.758577     4.922725
 O    -3.470959     6.418240     4.692194
 H    -2.991529     6.201057     5.507440
 H     7.283130     3.483726     4.832384
 O     7.284230     3.089935     3.950106
 H     7.531573     2.154461     4.080494
 H    -5.838526     0.848125     6.876200
 O    -6.613079     0.330951     7.211588
 H    -6.362888    -0.600060     7.054450
 H    -0.465471    -4.832904    -2.988526
 O    -0.629384    -4.728685    -3.943641
 H    -1.224876    -5.435558    -4.224112
 H     6.714325     0.184123     4.310940
 O     7.685362     0.373317     4.272305
 H     7.901920     0.335906     3.314052
 H     4.811714    -6.613064    -3.957555
 O     4.120087    -6.783159    -4.632965
 H     4.250207    -6.110062    -5.309214
 H    -5.886501    -1.814742    -5.324550
 O    -6.505092    -2.575424    -5.443864
 H    -7.355399    -2.149170    -5.725555
 H    -7.668628     0.626885     5.954017
 O    -8.223922     0.969523     5.210062
 H    -8.836781     1.594946     5.599999
 H    -5.199349     5.748831     2.269610
 O    -5.431820     6.664409     2.013915
 H    -4.572215     7.134873     2.000559
 H     5.813143     1.618841    -4.017777
 O     6.050278     0.838975    -4.565568
 H     5.560394     0.938387    -5.384316
 H    -5.829148     6.479347     0.357417
 O    -5.853365     6.260247    -0.597263
 H    -4.961610     6.496080    -0.930401
 H    -0.265841    -7.418176    -3.242532
 O    -0.969187    -7.545365    -2.595285
 H    -0.575561    -7.897821    -1.788384
 H    -2.547561    -1.607524     5.414223
 O    -1.914206    -2.348431     5.572430
 H    -1.064121    -1.873215     5.768776
 H     7.525518    -4.505333    -1.601466
 O     7.646527    -4.488835    -2.575257
 H     6.876511    -4.004223    -2.919695
 H    -8.811542    -2.868637    -3.379631
 O    -7.891241    -2.792651    -3.038000
 H    -7.342873    -2.600485    -3.813960
 H     8.838782    -3.308659    -2.947467
 O     9.473990    -2.585607    -3.135179
 H     8.976101    -1.754380    -3.034880
 H    -5.079602    -4.912624    -3.681665
 O    -5.040650    -3.950581    -3.545985
 H    -5.556673    -3.551209    -4.257136
 H    -3.613710     4.054522    -3.556080
 O    -3.322831     4.905446    -3.189490
 H    -3.604970     5.607788    -3.776703
 H    -0.204023     4.778457    -4.058968
 O    -0.864131     4.088045    -3.869499
 H    -1.646861     4.533198    -3.486962
 H    -1.963688    -4.112529     5.277979
 O    -2.259432    -4.971334     4.937202
 H    -3.190071    -4.821814     4.696335
 H    -2.351875     8.423325    -3.744885
 O    -2.559323     7.473123    -3.857238
 H    -2.358414     7.241828    -4.790924
 H    -2.955695     7.302147     3.232561
 O    -2.881428     7.502709     2.284813
 H    -2.283842     6.812873     1.929362
 H     4.813947     1.509641     4.168823
 O     4.663872     2.466613     4.006581
 H     5.539879     2.825594     3.770425
 H     7.865496    -1.833706     6.214872
 O     8.310102    -2.028310     5.366550
 H     8.270610    -1.177605     4.886600
 H     6.005782    -1.588309     7.724301
 O     6.714068    -1.064700     7.336063
 H     6.258547    -0.308862     6.902307
 H    -1.687171     5.699898    -6.477183
 O    -1.819328     6.639802    -6.279080
 H    -0.946831     7.062567    -6.371165
 H    -8.193124    -0.191206     3.882458
 O    -8.008096    -0.722279     3.095601
 H    -7.105367    -1.074570     3.196182
 H    -8.506503     0.162412     0.129751
 O    -8.536467     0.797945     0.864296
 H    -8.513677     0.248150     1.665927
 H     0.764477    -0.596995     5.867521
 O     0.092370    -0.940557     6.497406
 H    -0.396989    -0.142110     6.839983
 H    -0.424281     7.022706    -1.663996
 O    -0.380878     6.642312    -2.564210
 H    -1.233801     6.846624    -3.009507
 H     0.566027    -8.033497     0.494707
 O    -0.340403    -8.276431     0.251341
 H    -0.794250    -8.341761     1.119609
 H     2.022069     2.629720     5.215304
 O     2.036788     2.367457     4.271596
 H     2.979620     2.376120     4.025854
 H    -7.971241    -5.443915    -5.612612
 O    -7.073483    -5.302886    -5.955473
 H    -6.916538    -4.351416    -5.895770
 H     3.026432    -7.599411     0.984252
 O     2.140759    -7.230925     0.938001
 H     2.062159    -6.889806     0.010253
 H     3.376430     5.713331    -7.420835
 O     3.525942     4.751950    -7.546804
 H     2.694517     4.304093    -7.326359
 H    -0.483395     6.974976     0.505056
 O    -0.173144     7.682702    -0.084837
 H    -0.846017     8.376257    -0.031586
 H     4.444347     3.602425     5.210842
 O     4.358629     4.248050     5.953635
 H     5.239429     4.303901     6.333860
 H     7.644014     2.731672     6.799046
 O     7.120394     3.573554     6.725921
 H     7.610119     4.229467     7.220707
 H     4.037068    -8.018789    -1.103631
 O     4.556792    -7.489897    -0.476346
 H     5.003016    -6.842292    -1.045692
 H     6.712055    -5.962825    -2.739615
 O     5.941372    -6.559096    -2.696359
 H     6.275418    -7.471831    -2.631157
 H    -9.004065    -2.105750     2.922869
 O    -9.491873    -2.921114     2.682137
 H    -10.225346    -2.611133     2.123981
 H    -2.638532     8.747171     0.998708
 O    -2.493328     9.107715     0.108224
 H    -3.287083     9.672845    -0.061843
 H     8.085806     0.578494     7.335983
 O     8.432675     1.276801     6.770024
 H     8.284777     0.955280     5.863766
 H    -2.181378     5.199335     7.731901
 O    -2.032831     5.362926     6.796160
 H    -2.240002     4.496884     6.308259
 H    -6.306116    -6.368246    -3.415248
 O    -5.637006    -6.563287    -4.096447
 H    -6.074624    -6.272011    -4.925404
 H     6.774247    -2.836624     2.644340
 O     6.901314    -2.573219     1.713494
 H     7.848534    -2.652600     1.529224
 H     2.363793     6.695571    -0.839288
 O     2.619761     7.432426    -0.240156
 H     1.776184     7.770883     0.084356
 H    -4.208839    -7.318745    -2.968703
 O    -3.649384    -7.369181    -2.185175
 H    -2.738838    -7.492591    -2.508775
 H     0.928186     6.725030    -5.642443
 O     0.760131     7.599675    -6.064516
 H     0.778161     8.228973    -5.314099
 H    -8.274764    -1.592810    -1.733849
 O    -8.568215    -1.327265    -0.848316
 H    -8.342878    -2.118944    -0.309484
 H    -3.230242     7.137491    -2.208129
 O    -3.332196     6.954813    -1.264275
 H    -3.026688     7.753967    -0.785964
 H     2.798144    -4.591830     2.267238
 O     1.881488    -4.931101     2.266439
 H     1.936748    -5.820254     1.860349
 H    -8.812708    -0.694414    -5.092204
 O    -8.724733    -1.268579    -5.888497
 H    -8.434599    -0.667398    -6.597137
 H     7.554275    -0.067694    -3.933382
 O     8.197353    -0.110658    -3.206870
 H     8.874042     0.553200    -3.401039
 H     4.252604     6.651928    -0.086673
 O     4.959048     6.014977    -0.280140
 H     4.496954     5.180320    -0.517196
 H    -7.942690     0.201017    -3.268916
 O    -8.839123     0.223133    -3.663357
 H    -9.444851    -0.012732    -2.959379
 H     6.151466     3.781910    -3.292307
 O     5.672019     2.996864    -2.969123
 H     6.255634     2.566901    -2.299731
 H    -1.362639    -6.919102     0.027216
 O    -1.974203    -6.174462    -0.146008
 H    -2.567241    -6.474280    -0.841681
 H    -3.992506    -7.787758     0.915087
 O    -4.222766    -7.533682     1.811811
 H    -4.001977    -6.574053     1.880676
 H    -2.887663    -5.088269     1.104933
 O    -3.601114    -4.968483     1.752764
 H    -3.314376    -4.255209     2.358794
 H     5.222769    -6.254502     4.757969
 O     4.470577    -6.008986     4.216063
 H     4.769692    -6.094992     3.295537
 H    -9.582894    -6.148415    -3.984586
 O    -9.593435    -5.685098    -4.853559
 H    -10.234373    -6.150888    -5.391031
 H     6.253789    -5.709159     1.155638
 O     5.737428    -6.300252     1.741328
 H     5.280125    -6.886098     1.126570
 H    -1.401245    -6.760316     2.501553
 O    -1.548776    -7.720293     2.550211
 H    -2.509645    -7.838211     2.542155
 H    -10.076607    -3.978067    -4.558735
 O    -10.201648    -3.052613    -4.288863
 H    -9.964160    -2.501215    -5.046758
 H     0.511622     7.956789    -3.264172
 O     0.836721     8.791576    -3.661572
 H     1.737499     8.926421    -3.300280
 H    -9.129928    -7.907374    -2.607192
 O    -9.714798    -7.148152    -2.607524
 H    -9.595791    -6.717944    -1.741481
 H     2.075456     0.624222     4.532807
 O     2.160701    -0.222710     5.004004
 H     2.371890    -0.910051     4.339189
 H    -6.524690     0.440227    -7.648195
 O    -7.483616     0.530843    -7.523051
 H    -7.634605     1.432742    -7.237518
 H     6.280114     3.874949    -7.293723
 O     5.687878     3.811992    -6.544385
 H     4.844828     4.276057    -6.838680
 H    -5.289996     10.300125     0.629539
 O    -4.795902     10.321012    -0.200870
 H    -5.381710     9.842902    -0.820383
 H    -0.787500    -1.105903    -5.800468
 O    -0.945714    -0.447117    -6.511246
 H    -0.158186     0.127641    -6.454234
 H     4.768203    -0.454024    -6.969840
 O     4.846581    -1.388639    -6.750276
 H     5.690968    -1.493988    -6.277288
 H     2.496734    -8.857831    -2.687766
 O     3.453955    -8.792095    -2.680856
 H     3.686621    -8.204286    -3.414780
 H    -4.209753    -0.404478    -7.930056
 O    -4.716501     0.350787    -7.594667
 H    -4.034871     0.987518    -7.279913
 H     1.345186     3.742123     6.647922
 O     2.078199     3.134545     6.886301
 H     2.893341     3.651066     6.716901
 H    -11.347003    -2.597773    -0.065384
 O    -10.928521    -1.966499     0.520243
 H    -10.192641    -1.577519     0.015232
 H    -7.427738     2.004378     7.549736
 O    -7.891095     2.850003     7.466622
 H    -8.018334     3.183305     8.354194
 H     6.158122    -9.088858    -1.200930
 O     6.243348    -9.205722    -2.152160
 H     5.358063    -9.426304    -2.467772
 H     6.637577     5.192829    -0.789379
 O     7.274788     4.526337    -1.066418
 H     7.460047     3.991049    -0.267781
 H    -5.465173    -2.915072     5.879894
 O    -5.443635    -2.156564     6.506439
 H    -4.728418    -2.408459     7.132923
 H     2.562967     1.418944     7.363139
 O     3.069451     0.585379     7.353238
 H     2.765259     0.175640     6.509230
 H    -2.617549    -2.831449     7.033486
 O    -3.139851    -3.021888     7.859089
 H    -2.518459    -2.768990     8.564922
 H     5.767179     1.986299     6.659913
 O     5.478624     1.114286     6.385271
 H     4.589926     0.964209     6.772701
 H     1.954475    -4.381590     4.087731
 O     2.438206    -4.325247     4.923624
 H     3.132841    -5.001418     4.841427
 H     10.429426    -2.776555    -1.803380
 O     10.922855    -2.789035    -0.938688
 H     11.852896    -2.765922    -1.157211
 H     3.933658     8.259654    -2.882182
 O     3.255873     8.837083    -2.509601
 H     3.077059     8.485533    -1.618254
 H    -8.185291    -6.436752     0.311155
 O    -8.828431    -6.010542    -0.278407
 H    -8.770787    -5.061866    -0.007194
 H    -0.671995     9.675728    -3.271210
 O    -1.610058     9.845690    -3.061679
 H    -1.678283     9.963279    -2.111702
 H     4.157183     3.991681    -3.769777
 O     3.609161     4.781872    -3.794712
 H     4.173645     5.553417    -3.580258
 H     5.213595     6.562305    -1.958694
 O     5.148020     6.774135    -2.910355
 H     5.929480     6.413649    -3.348831
 H    -0.375605     5.178461     6.070610
 O     0.339992     4.692433     5.642117
 H     1.038535     5.328442     5.352057
 H     3.210846     5.534758     5.146754
 O     2.450471     5.980099     4.743738
 H     2.400175     5.651004     3.832043
 H    -7.134502     9.006991    -0.201113
 O    -6.842459     8.783269    -1.094534
 H    -6.614521     7.837322    -1.067382
 H    -1.332267    -5.038226     3.543459
 O    -0.884343    -4.954229     2.671120
 H     0.034687    -5.216503     2.771500
 H     4.209034    -2.178404     6.225899
 O     4.215843    -2.332284     5.256195
 H     3.495592    -2.972176     5.081369
 H     7.080844    -6.208500     3.160584
 O     7.457570    -5.846380     3.972371
 H     6.985854    -5.005704     4.124379
 H     9.005073    -4.883539     3.909249
 O     9.641913    -4.156263     3.776277
 H     9.376360    -3.455153     4.384102
 H     3.122864     7.926244    -8.052582
 O     3.121772     7.387850    -7.262492
 H     2.248847     7.541993    -6.826010
 H    -0.279135    -1.753327     8.408745
 O    -0.676496    -2.206587     9.170716
 H    -0.100336    -2.973844     9.281574
 H     8.397900     4.445393    -2.255308
 O     9.077557     4.467958    -2.977626
 H     9.803571     4.978452    -2.618973
 H     6.426354     4.660650    -5.166161
 O     6.748150     5.054679    -4.333881
 H     7.694181     4.891965    -4.244979
 H     10.678220     2.109905    -4.167030
 O     9.940339     2.003899    -3.568602
 H     9.563159     2.897083    -3.404152
 H     3.116433    -2.458294     7.867448
 O     3.954263    -1.951163     7.880807
 H     3.679222    -1.025051     7.955932
 H    -2.396783    -1.958729    -8.810623
 O    -2.806757    -1.626342    -8.013063
 H    -2.101460    -1.175391    -7.500307
 H     5.126981     5.363282     1.540204
 O     4.916667     4.807799     2.301326
 H     3.946979     4.836603     2.397790
 H    -3.756933    -6.294960    -4.860134
 O    -2.947288    -5.785442    -4.938462
 H    -3.172545    -5.007467    -5.472888
 H    -6.547689     6.184034     4.898433
 O    -6.106238     7.006246     4.617113
 H    -5.971864     6.924235     3.646487
 H    -7.454512     4.152835     6.112805
 O    -7.185086     4.584358     5.292509
 H    -6.948547     3.859076     4.691618
 H    -7.222102     9.516656     2.432705
 O    -6.975606     9.907364     1.569573
 H    -7.440408     10.743320     1.518472
 H    -5.986977    -6.930479     1.668532
 O    -6.597527    -6.297065     1.259879
 H    -6.056950    -5.856926     0.569241
 H    -3.797796    -4.700231     7.600610
 O    -4.038776    -5.544584     7.176257
 H    -3.249366    -5.821657     6.696703
 H     9.561981     0.780548    -0.555358
 O     9.615787     1.736206    -0.739154
 H     9.926233     1.803304    -1.648185
 H    -7.976767    -4.182124     3.227693
 O    -7.051834    -4.449008     3.233112
 H    -6.924420    -5.090484     2.504751
 H     1.058335    -2.316716     6.900481
 O     1.551508    -3.076201     7.256032
 H     1.754423    -3.635455     6.492660
 H    -3.428971    -2.874168    -6.852259
 O    -3.846100    -3.499994    -6.241998
 H    -4.794004    -3.364659    -6.325376
 H    -8.664205     8.402946     3.837842
 O    -7.871746     8.931507     3.943030
 H    -7.196939     8.333620     4.327820
 H     8.028581    -2.148652    -5.180030
 O     7.104835    -1.893787    -5.205462
 H     6.634260    -2.533857    -4.638643
 H    -4.912867    -4.903076     5.760240
 O    -4.958073    -4.315959     4.980060
 H    -5.719483    -4.564229     4.435977
 N    -1.471019     0.943897     7.789330
 H    -1.095118     1.231521     8.686702
 H    -2.362968     0.490091     7.959014
 H    -1.649112     1.775088     7.234908
