604
grain_mol92 // -1788.467076609479 // -55.2164372599 // -820.898807839379 // -1022.78470603 // -0.054008785 // -0.583906861065 // -0.015188710424
 H    -1.769983     0.106062     2.518843
 O    -0.791732     0.129821     2.596778
 H    -0.523967    -0.744141     2.966542
 H    -0.417336    -1.946762    -2.711766
 O    -0.491086    -1.932079    -1.744396
 H    -1.437760    -1.814077    -1.558042
 H    -2.716287     1.927691     0.803248
 O    -2.624445     1.247722     0.114875
 H    -1.839554     1.500788    -0.404123
 H    -3.715346     1.840316    -3.065881
 O    -3.199685     2.144782    -3.848634
 H    -2.293096     2.279992    -3.554365
 H    -0.108658    -0.629469    -0.724780
 O     0.028990     0.131419    -0.127377
 H    -0.405218    -0.104466     0.702873
 H     0.946883    -2.049090    -4.619037
 O     0.007438    -2.208614    -4.409279
 H    -0.079214    -3.173658    -4.474996
 H    -4.911225     2.413836    -1.349174
 O    -4.552091     1.566090    -1.675666
 H    -3.878638     1.317634    -0.999396
 H    -3.506959     3.563837     2.365203
 O    -2.790344     2.927328     2.177715
 H    -2.014650     3.289819     2.643707
 H     2.560797     0.125976    -2.909637
 O     1.951522    -0.481800    -2.442146
 H     1.050641    -0.171788    -2.659663
 H    -1.132759     0.187686    -3.567528
 O    -0.319108     0.669106    -3.306769
 H    -0.562749     1.309208    -2.618075
 H     2.676004    -0.538434     0.637719
 O     2.576583    -1.315848     0.049932
 H     2.313263    -0.975299    -0.826497
 H    -2.850310    -0.433163    -0.519867
 O    -2.988139    -0.942335    -1.329544
 H    -3.802550    -1.468870    -1.229263
 H     2.839492     1.221327    -0.825350
 O     2.025337     1.747352    -0.735509
 H     1.303712     1.117205    -0.526137
 H     0.604828     3.044401    -3.358272
 O     1.521145     2.862974    -3.110378
 H     1.517974     2.448862    -2.228487
 H     0.091944    -3.976680    -0.298760
 O    -0.146413    -4.700794    -0.921605
 H    -0.935587    -5.120866    -0.507935
 H    -6.211553     2.394073     2.948473
 O    -6.265894     2.647946     3.907186
 H    -7.021559     2.147054     4.272550
 H     1.111306    -3.621731     1.537779
 O     0.704626    -3.005996     0.901101
 H     1.389345    -2.366267     0.618094
 H    -2.836214     5.231825    -1.225312
 O    -2.662999     4.463221    -0.649725
 H    -3.554693     4.116519    -0.437309
 H    -5.512190    -1.084361     1.794862
 O    -5.232136    -0.489147     1.067332
 H    -5.347637    -0.990257     0.254230
 H    -0.363955    -2.996321     3.247945
 O    -0.045011    -2.166778     3.641754
 H     0.899813    -2.088280     3.430984
 H     5.264834     0.947359    -1.177253
 O     4.475581     0.434311    -0.952317
 H     4.701134     0.068298    -0.067796
 H     0.766364     2.479110     0.967799
 O     0.757971     2.188673     1.888996
 H     0.137817     1.442357     1.980395
 H     4.449600    -0.635402    -2.258290
 O     4.644307    -1.169122    -3.062303
 H     5.130467    -0.558952    -3.655772
 H     3.091310     3.207793    -1.125636
 O     3.975422     3.597787    -1.125002
 H     4.454176     3.259109    -1.905501
 H    -5.887781    -1.495666    -1.772110
 O    -5.363851    -2.175481    -1.294170
 H    -5.292544    -2.927669    -1.907772
 H    -4.949300    -3.900710     1.499777
 O    -5.629937    -3.277401     1.184764
 H    -5.399747    -3.044673     0.274935
 H     2.742178     1.957331    -3.727005
 O     3.409079     1.259871    -3.895661
 H     3.475184     1.171050    -4.852194
 H    -5.101991     4.140783     3.574332
 O    -4.524071     4.693759     3.037932
 H    -3.991370     5.254494     3.641514
 H     0.664738     0.786992    -4.727750
 O     1.170609     0.630247    -5.551596
 H     1.745448    -0.137855    -5.360637
 H     1.101678     5.684581    -2.546490
 O     1.891561     5.373837    -2.071513
 H     2.438829     4.884937    -2.717507
 H    -2.829033    -3.495252    -1.558872
 O    -2.964605    -3.712725    -0.620568
 H    -3.745731    -4.280440    -0.557569
 H     2.144681     4.931811    -4.762807
 O     1.269865     5.008683    -5.181191
 H     1.248369     4.276302    -5.826724
 H     7.797829     1.740455    -0.962309
 O     7.005594     1.363187    -1.386834
 H     7.357585     0.644698    -1.950163
 H     4.544544     2.778781     0.235960
 O     4.875809     2.462332     1.101080
 H     4.812595     3.245116     1.687159
 H     1.037623    -3.264287    -1.976411
 O     1.889435    -3.147545    -2.422740
 H     1.993965    -2.174524    -2.490656
 H     1.245556     4.590180    -0.794120
 O     0.784230     4.164310    -0.036268
 H     0.112519     4.798178     0.273340
 H    -5.722449     1.154183     1.232308
 O    -6.198997     1.995917     1.378751
 H    -7.134436     1.756792     1.154385
 H    -2.295379    -2.568845     0.439332
 O    -1.811389    -1.970903     1.040974
 H    -0.906135    -2.322557     1.054659
 H    -3.668528    -0.062730     4.326682
 O    -3.660926    -0.144743     5.307765
 H    -4.421163    -0.700469     5.593905
 H    -6.082310    -2.607627     3.409037
 O    -5.628106    -1.749847     3.452533
 H    -4.678126    -1.986823     3.460686
 H    -2.859615    -0.494546    -2.929018
 O    -2.594365    -0.606610    -3.868723
 H    -2.454762    -1.578425    -3.902362
 H    -3.552027    -3.451487    -3.461025
 O    -2.667343    -3.088119    -3.257576
 H    -2.029544    -3.824122    -3.429035
 H     3.204093    -1.397067    -4.165106
 O     2.652554    -1.569316    -4.951945
 H     3.288023    -1.754633    -5.662337
 H     4.701993     1.973550    -6.695245
 O     4.165497     1.155172    -6.664528
 H     3.328877     1.375149    -7.082958
 H    -4.156906     1.322074     5.769185
 O    -4.629599     2.165430     5.987981
 H    -5.192919     2.354187     5.210193
 H    -3.939620     0.071298     2.047070
 O    -3.395953     0.416977     2.775747
 H    -3.303644     1.382391     2.644195
 H    -5.786351     0.548563    -2.230318
 O    -6.337439    -0.134952    -2.663279
 H    -5.913435    -0.285862    -3.530959
 H     1.879954    -4.034741    -3.916786
 O     1.824634    -4.592463    -4.722596
 H     1.480926    -5.441697    -4.373773
 H     4.442961    -3.612236    -0.438290
 O     4.732189    -2.836721     0.090157
 H     3.976311    -2.203718     0.057664
 H    -0.203805     3.004126    -1.006817
 O    -0.956686     2.609814    -1.478227
 H    -1.664139     3.281124    -1.383443
 H     1.823514     4.477056     1.380038
 O     2.281673     4.648294     2.223200
 H     2.082442     3.889158     2.793160
 H     3.728599     1.244901     1.617357
 O     2.952886     0.681556     1.805799
 H     2.185907     1.279004     1.904711
 H     3.104620    -4.064438    -1.858134
 O     3.797303    -4.682614    -1.517121
 H     4.480121    -4.723076    -2.204975
 H     4.928203    -4.023145    -4.305591
 O     5.366527    -3.678442    -3.491244
 H     4.977695    -2.801900    -3.290756
 H    -1.009436     5.192705     1.906970
 O    -1.182769     5.708825     1.085413
 H    -1.824489     5.191648     0.533234
 H    -5.642572     3.285275     0.369852
 O    -5.185627     3.748407    -0.357938
 H    -5.629190     4.599274    -0.553934
 H     4.994327    -3.736057     3.135584
 O     4.242809    -3.579388     2.557643
 H     4.576955    -3.336639     1.665108
 H     5.840175    -1.261081     1.430772
 O     5.450270    -0.366375     1.377217
 H     6.239841     0.208929     1.395764
 H     1.566697    -6.894872    -2.675609
 O     1.394798    -7.186896    -3.603702
 H     2.301142    -7.263297    -3.960001
 H    -7.232132    -3.474616     1.002562
 O    -8.200017    -3.470225     0.803436
 H    -8.656134    -3.232129     1.639626
 H     3.223101    -2.297315     2.944498
 O     2.544643    -1.613734     3.100040
 H     2.774452    -0.834732     2.561753
 H    -1.869344     2.971497     5.004960
 O    -2.579285     3.629270     5.123228
 H    -3.324818     3.152389     5.534785
 H    -0.786639     1.129374     3.983482
 O    -0.657908     1.717688     4.761081
 H     0.185245     2.156319     4.604311
 H     0.297969     3.132211    -7.047491
 O     1.251875     2.935903    -6.916394
 H     1.264626     2.110122    -6.397038
 H     7.137855    -2.670107     4.859124
 O     6.377547    -3.134107     4.433807
 H     5.576175    -2.751196     4.864024
 H     8.021425     1.496199     1.346384
 O     7.928630     0.583327     1.678900
 H     8.408617    -0.006010     1.067964
 H    -4.091746    -0.643766    -4.587442
 O    -5.021336    -0.692302    -4.914059
 H    -5.009269    -0.369741    -5.832638
 H     6.434942    -1.549728    -2.079944
 O     6.841483    -1.985395    -1.325845
 H     6.110166    -2.219874    -0.723617
 H     4.714111    -0.634612     4.495199
 O     5.133293     0.081175     3.988732
 H     5.075958    -0.128854     3.032535
 H     0.032849     3.471697     2.759836
 O    -0.588079     4.149751     3.093697
 H    -0.273955     4.448704     3.968878
 H     8.237239    -1.300539    -0.643783
 O     9.029466    -0.912365    -0.211122
 H     9.722062    -1.585632    -0.257507
 H     9.585662    -3.758797     2.333915
 O     9.289531    -3.613032     1.409073
 H     10.055676    -3.481776     0.839909
 H    -2.407787    -2.356928     4.009765
 O    -3.033065    -2.474323     3.284670
 H    -2.576532    -2.188905     2.453499
 H    -2.161285     0.542721    -6.280078
 O    -2.797009     1.289088    -6.345089
 H    -3.035925     1.512137    -5.421872
 H    -1.196936     3.614670    -5.646098
 O    -1.321525     3.534839    -6.619839
 H    -1.921115     2.773732    -6.725750
 H    -4.661087    -6.205614    -0.805579
 O    -5.123017    -5.434913    -0.445626
 H    -5.891098    -5.279947    -1.038350
 H     2.625215    -5.845389    -1.192938
 O     1.814527    -6.383577    -1.087939
 H     1.057530    -5.740751    -0.993981
 H     3.287095    -4.501433    -5.443546
 O     4.247558    -4.521971    -5.715941
 H     4.371678    -3.795340    -6.342384
 H     7.531432     3.520307     1.902484
 O     7.443019     3.119926     1.028274
 H     6.509103     2.797189     0.993932
 H     6.608117    -3.861838     0.539191
 O     7.086791    -4.687293     0.354537
 H     7.977019    -4.516896     0.721079
 H    -7.530988    -4.430015    -2.204089
 O    -7.310757    -5.350696    -1.934074
 H    -7.935400    -5.579106    -1.219835
 H    -4.295554     7.086555     4.634709
 O    -3.412613     6.731746     4.417614
 H    -2.930155     6.560625     5.240768
 H     7.325951     3.747639     4.663619
 O     7.318270     3.303825     3.805424
 H     7.563042     2.376496     3.986914
 H    -5.763746     1.318785     6.932219
 O    -6.537635     0.799053     7.251058
 H    -6.271697    -0.131023     7.160077
 H    -0.630808    -4.972566    -2.586615
 O    -0.858099    -4.921094    -3.535854
 H    -1.448619    -5.672366    -3.739828
 H     6.736914     0.426584     4.331970
 O     7.708705     0.605757     4.277314
 H     7.919096     0.515096     3.321127
 H     4.750068    -6.814862    -3.529158
 O     4.053965    -7.015209    -4.192928
 H     4.186993    -6.380444    -4.904824
 H    -5.925730    -2.083523    -5.112758
 O    -6.591951    -2.807066    -5.140800
 H    -7.421672    -2.372913    -5.460090
 H    -7.633348     1.045469     6.027241
 O    -8.193382     1.346102     5.267516
 H    -8.798658     1.997421     5.625817
 H    -5.159477     5.934966     2.048335
 O    -5.388323     6.835592     1.740530
 H    -4.526818     7.300193     1.697235
 H     5.794196     1.394683    -4.058412
 O     6.022247     0.583017    -4.562533
 H     5.529340     0.641914    -5.383580
 H    -5.796623     6.560121     0.100313
 O    -5.827488     6.288139    -0.840649
 H    -4.936503     6.499597    -1.191259
 H    -0.320526    -7.546942    -2.741926
 O    -1.026276    -7.636919    -2.091911
 H    -0.636736    -7.941589    -1.263466
 H    -2.519388    -1.267494     5.630221
 O    -1.872431    -1.991930     5.806133
 H    -1.034671    -1.522743     5.979523
 H     7.487445    -4.593871    -1.310506
 O     7.600393    -4.635167    -2.284618
 H     6.833623    -4.161857    -2.650535
 H    -8.849991    -2.968122    -3.082588
 O    -7.929377    -2.880035    -2.747523
 H    -7.380772    -2.743920    -3.539078
 H     8.798814    -3.481100    -2.730274
 O     9.436104    -2.773621    -2.962584
 H     8.943977    -1.934733    -2.906525
 H    -5.140189    -5.044162    -3.293001
 O    -5.095311    -4.078261    -3.201188
 H    -5.578760    -3.713634    -3.954878
 H    -3.615607     3.906346    -3.681679
 O    -3.318727     4.775794    -3.366211
 H    -3.601828     5.444136    -3.991335
 H    -0.207475     4.581966    -4.245123
 O    -0.867890     3.906415    -4.009227
 H    -1.647730     4.376914    -3.651544
 H    -1.959919    -3.761856     5.589238
 O    -2.260948    -4.635719     5.294527
 H    -3.193788    -4.495003     5.054731
 H    -2.332966     8.250576    -4.124687
 O    -2.544849     7.296512    -4.181458
 H    -2.351979     7.011507    -5.101934
 H    -2.902935     7.526955     2.909261
 O    -2.830797     7.674577     1.951338
 H    -2.240328     6.961986     1.632297
 H     4.842104     1.753943     4.125951
 O     4.694579     2.700341     3.910654
 H     5.571036     3.041381     3.650387
 H     7.888857    -1.488566     6.339707
 O     8.325615    -1.733585     5.500546
 H     8.289119    -0.910343     4.974360
 H     6.039596    -1.146098     7.844721
 O     6.747616    -0.650738     7.421156
 H     6.294495     0.083345     6.949201
 H    -1.700500     5.372634    -6.702815
 O    -1.825325     6.323041    -6.556293
 H    -0.951398     6.734634    -6.678748
 H    -8.175922     0.113985     4.008726
 O    -7.998451    -0.463045     3.252658
 H    -7.096865    -0.812637     3.368703
 H    -8.509034     0.255987     0.243415
 O    -8.530978     0.931900     0.941327
 H    -8.506885     0.428347     1.772750
 H     0.854340    -0.222866     5.956993
 O     0.022263    -0.263141     6.483847
 H    -0.475061     0.497946     6.137013
 H    -0.401522     6.958986    -1.978221
 O    -0.364275     6.527942    -2.855497
 H    -1.218645     6.711220    -3.307706
 H     0.521313    -7.958340     1.018172
 O    -0.387089    -8.209320     0.791120
 H    -0.837872    -8.223218     1.663848
 H     2.060579     2.943385     5.126710
 O     2.064955     2.613752     4.203033
 H     3.005080     2.616679     3.946403
 H    -8.026225    -5.670732    -5.186627
 O    -7.131923    -5.543394    -5.543210
 H    -6.978690    -4.587583    -5.513363
 H     2.986857    -7.510503     1.469451
 O     2.103115    -7.139885     1.404955
 H     2.021912    -6.852534     0.460310
 H     3.358812     5.305964    -7.673090
 O     3.503151     4.338133    -7.744157
 H     2.669798     3.908045    -7.496464
 H    -0.447384     7.033781     0.190661
 O    -0.136269     7.705295    -0.439505
 H    -0.805615     8.404239    -0.422297
 H     4.490528     3.903871     5.050350
 O     4.412820     4.589489     5.756911
 H     5.296139     4.662921     6.127902
 H     7.695626     3.105205     6.667330
 O     7.175048     3.943638     6.549644
 H     7.669548     4.624171     7.004984
 H     3.984634    -8.053158    -0.595556
 O     4.509215    -7.490550    -0.003005
 H     4.956850    -6.879854    -0.610685
 H     6.657015    -6.106982    -2.362391
 O     5.883498    -6.696752    -2.283689
 H     6.214648    -7.605443    -2.165922
 H    -9.002288    -1.847996     3.163943
 O    -9.495154    -2.673432     2.971897
 H    -10.230437    -2.391391     2.401392
 H    -2.590093     8.842700     0.595311
 O    -2.447779     9.151663    -0.314871
 H    -3.239749     9.710650    -0.512132
 H     8.128827     0.982186     7.322534
 O     8.475267     1.645426     6.715752
 H     8.320801     1.274122     5.829941
 H    -2.294864     5.554409     7.431872
 O    -2.013808     5.723616     6.533772
 H    -2.215537     4.891380     6.010205
 H    -6.357573    -6.478039    -2.946701
 O    -5.690679    -6.714601    -3.617377
 H    -6.131409    -6.464566    -4.458607
 H     6.770718    -2.683743     2.837522
 O     6.892895    -2.475178     1.892352
 H     7.838942    -2.568243     1.707816
 H     2.389817     6.662520    -1.152337
 O     2.654052     7.429458    -0.596109
 H     1.814316     7.791542    -0.287253
 H    -4.275584    -7.409632    -2.454443
 O    -3.704618    -7.416443    -1.677113
 H    -2.798406    -7.572404    -1.996224
 H     0.926067     6.429470    -5.941503
 O     0.761469     7.280060    -6.411330
 H     0.786401     7.950409    -5.697689
 H    -8.297425    -1.604444    -1.519868
 O    -8.584041    -1.285778    -0.649086
 H    -8.360491    -2.046684    -0.067682
 H    -3.209385     7.057860    -2.512651
 O    -3.305535     6.929337    -1.559310
 H    -2.994071     7.752946    -1.128816
 H     2.783973    -4.434628     2.582662
 O     1.865388    -4.767757     2.608037
 H     1.911962    -5.678385     2.251806
 H    -8.856031    -0.878623    -4.916445
 O    -8.785470    -1.495199    -5.681904
 H    -8.485932    -0.941512    -6.423501
 H     7.525645    -0.289477    -3.889532
 O     8.173554    -0.299417    -3.166031
 H     8.852942     0.349152    -3.399228
 H     4.283218     6.650612    -0.408825
 O     4.985123     5.999270    -0.568617
 H     4.516902     5.155762    -0.756904
 H    -7.964806     0.099868    -3.154001
 O    -8.864661     0.113674    -3.541080
 H    -9.466002    -0.088525    -2.823024
 H     6.147297     3.593278    -3.459755
 O     5.666913     2.829876    -3.088976
 H     6.252074     2.437521    -2.398734
 H    -1.404039    -6.862058     0.500910
 O    -2.009872    -6.123561     0.287389
 H    -2.615147    -6.457921    -0.381213
 H    -4.035129    -7.662340     1.450033
 O    -4.252929    -7.358767     2.334272
 H    -4.030492    -6.396950     2.347498
 H    -2.912238    -4.961406     1.481188
 O    -3.620289    -4.805287     2.126641
 H    -3.329398    -4.059147     2.689641
 H     5.211346    -5.968103     5.150968
 O     4.457922    -5.746890     4.600268
 H     4.751618    -5.887900     3.684702
 H    -9.641482    -6.270368    -3.505258
 O    -9.650682    -5.860959    -4.400431
 H    -10.304752    -6.346034    -4.903803
 H     6.226096    -5.631898     1.517270
 O     5.708742    -6.185376     2.137990
 H     5.246195    -6.803448     1.559963
 H    -1.427376    -6.563009     2.961295
 O    -1.578059    -7.518408     3.060576
 H    -2.539869    -7.631440     3.067686
 H    -10.125416    -4.131743    -4.200276
 O    -10.249304    -3.193682    -3.978948
 H    -10.010625    -2.683013    -4.764619
 H     0.530355     7.795636    -3.633890
 O     0.857855     8.604917    -4.079236
 H     1.761188     8.754997    -3.731047
 H    -9.192165    -7.951417    -2.028617
 O    -9.773199    -7.190455    -2.069932
 H    -9.646952    -6.711077    -1.231156
 H     2.101005     0.896609     4.566244
 O     2.190022     0.069960     5.078061
 H     2.392022    -0.646536     4.440145
 H    -6.567425     0.081297    -7.551882
 O    -7.523295     0.188484    -7.426904
 H    -7.666910     1.106098    -7.192023
 H     6.252525     3.462000    -7.459408
 O     5.664983     3.443831    -6.703962
 H     4.821968     3.895143    -7.019307
 H    -5.234938     10.387350     0.153983
 O    -4.745560     10.358556    -0.679037
 H    -5.337844     9.849616    -1.267136
 H    -0.776317    -1.253105    -5.629006
 O    -1.027331    -0.691020    -6.400747
 H    -0.222381    -0.157252    -6.532225
 H     4.717486    -0.837354    -6.885769
 O     4.793366    -1.757031    -6.608999
 H     5.642268    -1.837148    -6.139173
 H     2.428882    -8.972460    -2.118050
 O     3.386131    -8.910702    -2.122906
 H     3.619005    -8.368011    -2.890235
 H    -4.245967    -0.812581    -7.823244
 O    -4.731901    -0.045574    -7.509284
 H    -4.045371     0.607525    -7.226908
 H     1.397288     4.097679     6.501553
 O     2.138110     3.507180     6.740899
 H     2.956140     4.015645     6.589612
 H    -11.365519    -2.493987     0.219254
 O    -10.939333    -1.834746     0.767295
 H    -10.204942    -1.477941     0.236857
 H    -7.374961     2.510042     7.541016
 O    -7.839745     3.349552     7.413611
 H    -7.952576     3.735356     8.281761
 H     6.101387    -9.138539    -0.644185
 O     6.177201    -9.306871    -1.588452
 H     5.289344    -9.544666    -1.883141
 H     6.656090     5.140833    -1.041785
 O     7.287713     4.455643    -1.284016
 H     7.475407     3.966068    -0.457326
 H    -5.377836    -2.448324     6.041531
 O    -5.382550    -1.652998     6.618511
 H    -4.756189    -1.874419     7.329213
 H     2.645810     1.884545     7.420486
 O     3.104942     1.033544     7.378690
 H     2.777893     0.605576     6.559597
 H    -2.712542    -2.407113     7.245073
 O    -3.198900    -2.490283     8.093605
 H    -2.573117    -2.132315     8.739909
 H     5.816542     2.363676     6.578339
 O     5.519660     1.479365     6.356142
 H     4.634019     1.359510     6.758879
 H     1.950408    -4.117731     4.394586
 O     2.436999    -4.014892     5.225021
 H     3.128242    -4.698585     5.177214
 H     10.399946    -2.894619    -1.627061
 O     10.897396    -2.861662    -0.765498
 H     11.826518    -2.854265    -0.989171
 H     3.956343     8.100275    -3.288488
 O     3.284452     8.701746    -2.944551
 H     3.108772     8.401735    -2.034039
 H    -8.223163    -6.323673     0.795369
 O    -8.866852    -5.928361     0.185654
 H    -8.802313    -4.965852     0.401364
 H    -0.643922     9.518286    -3.730807
 O    -1.579682     9.705350    -3.525962
 H    -1.641884     9.876194    -2.583688
 H     4.151827     3.787687    -3.937215
 O     3.607900     4.578409    -4.000342
 H     4.177957     5.357707    -3.834517
 H     5.233167     6.450616    -2.277781
 O     5.163164     6.608417    -3.239418
 H     5.940046     6.219614    -3.661407
 H    -0.318461     5.543507     5.850687
 O     0.395684     5.035460     5.440333
 H     1.092436     5.654898     5.115113
 H     3.267717     5.836472     4.884319
 O     2.507825     6.262670     4.460781
 H     2.449561     5.883382     3.569538
 H    -7.091459     9.059876    -0.592351
 O    -6.805268     8.784951    -1.473310
 H    -6.582891     7.840542    -1.394378
 H    -1.345009    -4.784711     3.903748
 O    -0.897858    -4.749845     3.027121
 H     0.018840    -5.014980     3.138684
 H     4.232148    -1.810938     6.390565
 O     4.227848    -2.018508     5.431352
 H     3.506656    -2.666653     5.296737
 H     7.061736    -6.022979     3.541931
 O     7.443954    -5.618438     4.330721
 H     6.979015    -4.767212     4.436966
 H     8.997660    -4.669087     4.204439
 O     9.636648    -3.953797     4.025682
 H     9.379783    -3.218134     4.595168
 H     3.112425     7.479221    -8.428415
 O     3.114709     6.988237    -7.607986
 H     2.244802     7.170973    -7.176239
 H    -0.581528    -0.831216     8.225520
 O    -0.793193    -1.425772     8.958815
 H    -0.089320    -2.080490     8.967110
 H     8.403864     4.302289    -2.472818
 O     9.079863     4.279201    -3.198429
 H     9.809961     4.806559    -2.874110
 H     6.415301     4.364835    -5.380841
 O     6.744747     4.801029    -4.572732
 H     7.690753     4.639576    -4.482176
 H     10.660466     1.849628    -4.261819
 O     9.925774     1.781524    -3.653962
 H     9.554408     2.684901    -3.538352
 H     3.149974    -1.987392     8.058393
 O     3.987621    -1.485292     8.029938
 H     3.719730    -0.554057     8.057799
 H    -1.730564    -3.593723    -7.444730
 O    -2.381725    -2.851287    -7.538123
 H    -1.872576    -2.051447    -7.295749
 H     5.160581     5.450351     1.283079
 O     4.952063     4.938410     2.074773
 H     3.983411     4.979944     2.175881
 H    -3.634015    -6.816955    -4.564754
 O    -2.929149    -6.208105    -4.812580
 H    -3.396717    -5.416259    -5.184234
 H    -6.489425     6.524442     4.656341
 O    -6.046252     7.327413     4.325480
 H    -5.918542     7.189313     3.360645
 H    -7.398388     4.572514     5.987666
 O    -7.136462     4.953686     5.140211
 H    -6.900450     4.192415     4.585673
 H    -7.160753     9.717421     2.009089
 O    -6.916945     10.057908     1.124053
 H    -7.378137     10.891959     1.028606
 H    -6.018576    -6.753086     2.167509
 O    -6.627774    -6.141073     1.726433
 H    -6.090264    -5.742227     1.008931
 H    -3.786167    -4.207933     7.952593
 O    -4.029502    -5.072470     7.575420
 H    -3.242957    -5.378509     7.109228
 H     9.558826     0.731808    -0.575949
 O     9.615961     1.675327    -0.812827
 H     9.921936     1.690700    -1.725754
 H    -7.983958    -3.908383     3.579887
 O    -7.060815    -4.181517     3.594908
 H    -6.942484    -4.862744     2.902295
 H     1.066570    -1.893633     7.077961
 O     1.561420    -2.617239     7.477526
 H     1.765251    -3.232576     6.755961
 H    -3.521129    -3.494192    -6.467137
 O    -4.134757    -3.980565    -5.851574
 H    -4.897791    -4.233470    -6.381904
 H    -8.600310     8.692989     3.483299
 O    -7.804340     9.222148     3.553155
 H    -7.130725     8.643029     3.967958
 H     7.983641    -2.440789    -5.018543
 O     7.059710    -2.187885    -5.055439
 H     6.591325    -2.790718    -4.448305
 H    -4.910558    -4.506268     6.129957
 O    -4.952626    -3.967775     5.315658
 H    -5.721494    -4.237808     4.792924
 N    -0.684235    -5.045849    -6.985448
 H     0.110792    -4.835259    -6.386385
 H    -0.318750    -5.541694    -7.792694
 H    -1.266751    -5.705056    -6.472201
