604
grain_mol6 // -1574.405583796976 // -39.9853281011 // -591.605273048076 // -1022.78563885 // -0.0350718528 // -0.583377528702 // -0.009277018985
 H    -1.806192    -0.133796     2.483617
 O    -0.830814    -0.061394     2.565517
 H    -0.515200    -0.941502     2.879293
 H    -0.356133    -1.793822    -2.873751
 O    -0.428605    -1.820515    -1.907045
 H    -1.379607    -1.777009    -1.712714
 H    -2.853652     1.738171     0.882899
 O    -2.728585     1.108856     0.152911
 H    -1.957099     1.432445    -0.346502
 H    -3.854311     1.836125    -2.986773
 O    -3.356810     2.213387    -3.749674
 H    -2.459413     2.382043    -3.444162
 H    -0.114407    -0.572537    -0.799103
 O    -0.020500     0.155565    -0.154356
 H    -0.435627    -0.159011     0.659344
 H     0.996540    -1.777544    -4.802279
 O     0.067762    -2.002028    -4.627195
 H     0.018300    -2.969033    -4.671309
 H    -5.075684     2.237489    -1.237900
 O    -4.672772     1.432547    -1.617573
 H    -3.985053     1.178200    -0.957458
 H    -3.727661     3.229196     2.542825
 O    -2.978291     2.645275     2.316637
 H    -2.222097     3.019003     2.805278
 H     2.504799     0.457527    -2.928916
 O     1.929213    -0.205485    -2.495971
 H     1.012816     0.063632    -2.699550
 H    -1.187929     0.356546    -3.583751
 O    -0.404391     0.870431    -3.297200
 H    -0.679000     1.448520    -2.566527
 H     2.663326    -0.417338     0.571150
 O     2.605169    -1.162089    -0.061907
 H     2.322617    -0.785395    -0.917133
 H    -2.860929    -0.542257    -0.584755
 O    -2.978411    -1.000184    -1.427544
 H    -3.756379    -1.582813    -1.356386
 H     2.728096     1.434906    -0.780325
 O     1.887068     1.909990    -0.657590
 H     1.201425     1.229123    -0.490084
 H     0.392037     3.286226    -3.195675
 O     1.317828     3.141619    -2.959791
 H     1.341204     2.672643    -2.105870
 H     0.262202    -3.926494    -0.578303
 O     0.058062    -4.614322    -1.250480
 H    -0.700834    -5.108964    -0.865689
 H    -6.364084     1.881207     3.049266
 O    -6.430265     2.072150     4.021644
 H    -7.156704     1.509210     4.354536
 H     1.269172    -3.633202     1.276219
 O     0.826608    -2.997194     0.685196
 H     1.478061    -2.310451     0.436476
 H    -3.155982     5.150466    -0.935678
 O    -2.940408     4.357693    -0.409384
 H    -3.811434     3.950557    -0.219956
 H    -5.480459    -1.476409     1.683526
 O    -5.236198    -0.822864     0.993977
 H    -5.323577    -1.279742     0.151942
 H    -0.234256    -3.193559     3.021503
 O     0.041444    -2.374162     3.466907
 H     0.979577    -2.232575     3.259415
 H     5.165771     1.313724    -1.144449
 O     4.403078     0.750214    -0.950928
 H     4.650354     0.339078    -0.092773
 H     0.595095     2.463783     1.085177
 O     0.602795     2.118488     1.987250
 H     0.025200     1.334612     2.031302
 H     4.432481    -0.237696    -2.322012
 O     4.653971    -0.708947    -3.156764
 H     5.107797    -0.040354    -3.710862
 H     2.872944     3.444896    -0.955470
 O     3.733676     3.883365    -0.929864
 H     4.229641     3.619066    -1.728364
 H    -5.841804    -1.686375    -1.903863
 O    -5.282830    -2.365980    -1.468505
 H    -5.165965    -3.073518    -2.126012
 H    -4.767821    -4.235081     1.215623
 O    -5.482105    -3.631435     0.937803
 H    -5.263993    -3.332005     0.044922
 H     2.584018     2.343688    -3.633147
 O     3.286881     1.695086    -3.843502
 H     3.358172     1.666563    -4.803232
 H    -5.348850     3.642869     3.783569
 O    -4.803133     4.258745     3.283178
 H    -4.299707     4.808515     3.921000
 H     0.562439     1.120426    -4.709126
 O     1.058171     1.033305    -5.549178
 H     1.694739     0.304326    -5.396249
 H     0.749666     5.895116    -2.223104
 O     1.556052     5.599121    -1.767109
 H     2.127786     5.180731    -2.440920
 H    -2.670560    -3.534996    -1.812395
 O    -2.810941    -3.797208    -0.886677
 H    -3.546758    -4.425029    -0.863188
 H     1.826661     5.338341    -4.479816
 O     0.948357     5.393501    -4.894782
 H     0.965871     4.702058    -5.583625
 H     7.651733     2.227202    -0.880047
 O     6.879253     1.836212    -1.327697
 H     7.267049     1.172852    -1.934230
 H     4.349826     3.012004     0.377938
 O     4.699373     2.662142     1.222764
 H     4.595016     3.402991     1.855418
 H     1.166474    -3.065042    -2.203483
 O     2.015346    -2.868083    -2.625524
 H     2.060356    -1.889466    -2.645826
 H     0.955902     4.703470    -0.541411
 O     0.519359     4.207598     0.187913
 H    -0.184615     4.784033     0.535403
 H    -5.812626     0.778081     1.260389
 O    -6.333480     1.582470     1.457488
 H    -7.255154     1.307611     1.218228
 H    -2.191873    -2.697089     0.242439
 O    -1.739320    -2.111762     0.879813
 H    -0.816676    -2.416051     0.873361
 H    -3.689259    -0.515783     4.275326
 O    -3.675549    -0.657285     5.249558
 H    -4.403782    -1.270288     5.499724
 H    -5.964423    -3.125243     3.198428
 O    -5.557604    -2.248259     3.295381
 H    -4.596009    -2.433460     3.290173
 H    -2.873133    -0.455874    -2.996423
 O    -2.608621    -0.500868    -3.942305
 H    -2.409729    -1.460014    -4.028309
 H    -3.326856    -3.465983    -3.749924
 O    -2.484405    -3.049815    -3.502145
 H    -1.765319    -3.653381    -3.776604
 H     3.234572    -0.939592    -4.274256
 O     2.687123    -1.073489    -5.071460
 H     3.325873    -1.208849    -5.789945
 H     4.535466     2.648850    -6.588359
 O     4.041415     1.804012    -6.610026
 H     3.194324     2.005687    -7.016038
 H    -4.248611     0.748682     5.800327
 O    -4.765553     1.550281     6.070571
 H    -5.339814     1.756228     5.305326
 H    -3.972161    -0.255538     2.007912
 O    -3.447143     0.073567     2.757543
 H    -3.406677     1.048701     2.685707
 H    -5.851225     0.385988    -2.231125
 O    -6.365208    -0.296339    -2.710344
 H    -5.934416    -0.364473    -3.584374
 H     2.019361    -3.652571    -4.171284
 O     1.978935    -4.103544    -5.037057
 H     1.625368    -4.988722    -4.849065
 H     4.591693    -3.321858    -0.695124
 O     4.840934    -2.567474    -0.112814
 H     4.052438    -1.975372    -0.109881
 H    -0.406329     3.057257    -0.854325
 O    -1.138432     2.654588    -1.350730
 H    -1.880663     3.279115    -1.212932
 H     1.543687     4.487173     1.622097
 O     1.993250     4.630733     2.475012
 H     1.836831     3.827868     2.996344
 H     3.620345     1.354562     1.660946
 O     2.876687     0.740310     1.816207
 H     2.078772     1.288305     1.948925
 H     3.278484    -3.754654    -2.136539
 O     4.006932    -4.345076    -1.827183
 H     4.682713    -4.331362    -2.521999
 H     5.098081    -3.468796    -4.576504
 O     5.517871    -3.142483    -3.743138
 H     5.070908    -2.310462    -3.488468
 H    -1.322199     5.015434     2.189503
 O    -1.525645     5.571653     1.401578
 H    -2.139314     5.055354     0.817803
 H    -5.849254     2.959502     0.531312
 O    -5.420539     3.490579    -0.166705
 H    -5.909171     4.327363    -0.308708
 H     5.158439    -3.625614     2.867434
 O     4.398940    -3.488499     2.295468
 H     4.713192    -3.168742     1.418675
 H     5.861937    -1.017221     1.319030
 O     5.425474    -0.142834     1.325424
 H     6.183707     0.471062     1.377994
 H     1.862784    -6.530404    -3.134286
 O     1.689831    -6.736080    -4.078464
 H     2.569783    -6.776948    -4.483091
 H    -7.070783    -3.902197     0.741663
 O    -8.038311    -3.936235     0.541506
 H    -8.504535    -3.776397     1.390755
 H     3.309396    -2.288007     2.761199
 O     2.598588    -1.651324     2.964077
 H     2.781976    -0.830285     2.472476
 H    -2.054792     2.563232     5.142426
 O    -2.798878     3.173230     5.300635
 H    -3.516664     2.632140     5.680920
 H    -0.876756     0.848663     4.010204
 O    -0.778301     1.394082     4.822957
 H     0.039628     1.886343     4.694293
 H     0.076322     3.587086    -6.873195
 O     1.038825     3.429511    -6.755042
 H     1.092930     2.573458    -6.288992
 H     7.241993    -2.567035     4.659074
 O     6.508344    -3.047963     4.206226
 H     5.687502    -2.733323     4.655844
 H     7.892867     1.852995     1.410728
 O     7.850954     0.918002     1.687290
 H     8.359403     0.394021     1.040562
 H    -4.098180    -0.566977    -4.659320
 O    -5.024997    -0.642586    -4.993990
 H    -5.030210    -0.255951    -5.890963
 H     6.465270    -1.063518    -2.202610
 O     6.895793    -1.504972    -1.465415
 H     6.177926    -1.825650    -0.887355
 H     4.711582    -0.643696     4.416824
 O     5.091866     0.123350     3.957244
 H     5.043499    -0.028679     2.989198
 H    -0.187826     3.303447     2.934418
 O    -0.843280     3.925408     3.309395
 H    -0.543504     4.185547     4.201785
 H     8.254580    -0.795215    -0.747915
 O     9.026594    -0.395795    -0.288756
 H     9.754031    -1.025944    -0.382534
 H     9.747017    -3.353649     2.071553
 O     9.438283    -3.172306     1.158309
 H     10.190847    -2.961374     0.594343
 H    -2.307036    -2.714501     3.817250
 O    -2.927993    -2.817967     3.086487
 H    -2.488490    -2.459579     2.274376
 H    -2.234365     0.810494    -6.258964
 O    -2.894755     1.530732    -6.287306
 H    -3.153937     1.689683    -5.355846
 H    -1.439989     3.903046    -5.446949
 O    -1.562599     3.876853    -6.424390
 H    -2.118549     3.091917    -6.577618
 H    -4.354862    -6.374810    -1.232234
 O    -4.859700    -5.655176    -0.824330
 H    -5.635766    -5.506334    -1.406208
 H     2.898667    -5.610382    -1.565845
 O     2.109262    -6.184152    -1.497569
 H     1.324285    -5.585643    -1.379525
 H     3.430437    -3.978628    -5.707367
 O     4.388724    -3.921030    -5.975233
 H     4.466514    -3.172132    -6.572171
 H     7.295425     3.809842     2.090654
 O     7.227054     3.459985     1.193352
 H     6.311934     3.089721     1.137636
 H     6.781055    -3.503615     0.271048
 O     7.298273    -4.297251     0.030853
 H     8.172977    -4.072737     0.417931
 H    -7.329118    -4.670048    -2.512920
 O    -7.058968    -5.591662    -2.303930
 H    -7.665754    -5.899754    -1.603942
 H    -4.699970     6.556549     5.025694
 O    -3.799709     6.264181     4.787835
 H    -3.306852     6.068324     5.599258
 H     7.084271     3.853371     4.860987
 O     7.098962     3.463988     3.976887
 H     7.393801     2.541858     4.100292
 H    -5.850371     0.586841     6.959053
 O    -6.594555     0.007481     7.244109
 H    -6.279015    -0.899507     7.095904
 H    -0.289185    -4.787661    -2.972018
 O    -0.467007    -4.683324    -3.924428
 H    -1.023574    -5.420227    -4.207161
 H     6.674698     0.532008     4.322497
 O     7.635847     0.764658     4.280887
 H     7.848093     0.747454     3.320693
 H     5.056506    -6.310561    -3.978241
 O     4.366833    -6.502979    -4.651462
 H     4.469859    -5.822255    -5.324025
 H    -5.863496    -2.023589    -5.263229
 O    -6.445117    -2.812604    -5.384051
 H    -7.316508    -2.426569    -5.659171
 H    -7.704341     0.269695     6.036732
 O    -8.281574     0.586258     5.296513
 H    -8.920150     1.180542     5.694013
 H    -5.506334     5.522623     2.372026
 O    -5.784054     6.426856     2.119905
 H    -4.948884     6.939008     2.106767
 H     5.661142     1.967536    -3.993547
 O     5.934364     1.203481    -4.546356
 H     5.435712     1.281691    -5.362111
 H    -6.180551     6.231860     0.465823
 O    -6.198764     6.017620    -0.490339
 H    -5.321185     6.298275    -0.825882
 H     0.034925    -7.357396    -3.241222
 O    -0.659557    -7.522137    -2.592482
 H    -0.245200    -7.860342    -1.789928
 H    -2.474232    -1.734889     5.502870
 O    -1.788859    -2.432622     5.635603
 H    -0.977049    -1.930490     5.837344
 H     7.682814    -4.079869    -1.624202
 O     7.807548    -4.033532    -2.594897
 H     7.003696    -3.604875    -2.935842
 H    -8.724081    -3.228738    -3.310575
 O    -7.806816    -3.110153    -2.972988
 H    -7.272225    -2.887573    -3.750422
 H     8.930847    -2.808640    -2.964083
 O     9.531882    -2.053634    -3.145514
 H     8.992029    -1.249360    -3.043662
 H    -4.898156    -5.087570    -3.641989
 O    -4.906402    -4.125608    -3.500520
 H    -5.444081    -3.748047    -4.207478
 H    -3.869552     3.939481    -3.471916
 O    -3.617807     4.801505    -3.102298
 H    -3.937579     5.492501    -3.683640
 H    -0.501777     4.830922    -3.987369
 O    -1.126143     4.108075    -3.797846
 H    -1.928117     4.512679    -3.409920
 H    -1.782111    -4.187257     5.308601
 O    -2.035997    -5.057169     4.962478
 H    -2.974684    -4.952589     4.727566
 H    -2.822364     8.365372    -3.642065
 O    -2.983400     7.406752    -3.758788
 H    -2.776713     7.190626    -4.694811
 H    -3.336991     7.177567     3.332252
 O    -3.275139     7.387867     2.385374
 H    -2.647676     6.729239     2.023615
 H     4.710407     1.765809     4.196777
 O     4.511652     2.714711     4.042159
 H     5.367374     3.118028     3.803011
 H     7.931989    -1.438687     6.208767
 O     8.379027    -1.608760     5.356422
 H     8.297252    -0.757342     4.882039
 H     6.070225    -1.289603     7.730681
 O     6.750283    -0.732875     7.338684
 H     6.257735     0.004389     6.913131
 H    -2.040128     5.692225    -6.393055
 O    -2.216607     6.623526    -6.188941
 H    -1.366187     7.088643    -6.282953
 H    -8.200302    -0.562990     3.963800
 O    -7.993939    -1.081216     3.173248
 H    -7.074597    -1.388689     3.268279
 H    -8.548980    -0.206282     0.215100
 O    -8.606211     0.423360     0.952939
 H    -8.552523    -0.128267     1.751955
 H     0.839407    -0.532297     5.897482
 O     0.012300    -0.649767     6.420643
 H    -0.526507     0.102962     6.120557
 H    -0.818896     7.048874    -1.578298
 O    -0.761086     6.675795    -2.480748
 H    -1.625162     6.840797    -2.921079
 H     0.901286    -7.949883     0.480628
 O     0.006005    -8.242782     0.247250
 H    -0.433226    -8.332722     1.120090
 H     1.871140     2.739596     5.266867
 O     1.891057     2.468594     4.324632
 H     2.829042     2.537724     4.069425
 H    -7.770940    -5.747847    -5.562220
 O    -6.882953    -5.561550    -5.908857
 H    -6.771837    -4.603979    -5.844126
 H     3.279954    -7.463290     1.020001
 O     2.403318    -7.083101     0.944435
 H     2.354756    -6.741249     0.012315
 H     3.011906     5.956887    -7.360831
 O     3.207525     5.004636    -7.492840
 H     2.399990     4.515498    -7.271184
 H    -0.864361     6.986708     0.590961
 O    -0.591677     7.711655     0.003594
 H    -1.297417     8.371270     0.063877
 H     4.245362     3.832579     5.253151
 O     4.132398     4.467894     6.000870
 H     5.011363     4.566008     6.376413
 H     7.492667     3.109398     6.821136
 O     6.927083     3.923928     6.755513
 H     7.385333     4.600979     7.252097
 H     4.337438    -7.668900    -1.102993
 O     4.697644    -6.920474    -0.595241
 H     5.257632    -6.473624    -1.267361
 H     6.970671    -5.565343    -2.799026
 O     6.226467    -6.201134    -2.786560
 H     6.615719    -7.112884    -2.748090
 H    -8.921609    -2.510458     2.997996
 O    -9.370005    -3.347458     2.753938
 H    -10.120963    -3.070096     2.202011
 H    -3.100504     8.648982     1.104905
 O    -2.977290     9.020940     0.215713
 H    -3.798574     9.547708     0.052799
 H     8.040832     0.976625     7.343631
 O     8.350406     1.693334     6.779255
 H     8.213512     1.369894     5.871963
 H    -2.613655     4.963994     7.724466
 O    -2.344281     5.203557     6.838885
 H    -2.501739     4.395574     6.264499
 H    -6.052068    -6.602259    -3.378143
 O    -5.377802    -6.761154    -4.063595
 H    -5.832910    -6.486825    -4.888844
 H     6.875698    -2.467580     2.641417
 O     6.982384    -2.197288     1.711005
 H     7.930612    -2.225668     1.518166
 H     1.985939     6.853017    -0.768982
 O     2.209238     7.597589    -0.166332
 H     1.351841     7.893557     0.163613
 H    -3.907301    -7.452554    -2.947450
 O    -3.342694    -7.479616    -2.166495
 H    -2.428544    -7.556914    -2.494757
 H     0.526575     6.838733    -5.564998
 O     0.314403     7.706516    -5.981274
 H     0.305354     8.331822    -5.227383
 H    -8.241566    -1.937760    -1.660244
 O    -8.543082    -1.691483    -0.771912
 H    -8.277077    -2.474020    -0.238362
 H    -3.629439     7.030156    -2.108300
 O    -3.716706     6.837304    -1.165048
 H    -3.448963     7.647988    -0.683488
 H     2.984615    -4.419234     2.267005
 O     2.084864    -4.799276     2.278478
 H     2.172182    -5.681447     1.861069
 H    -8.839523    -1.047852    -5.010540
 O    -8.727859    -1.612662    -5.810593
 H    -8.470696    -0.994261    -6.517116
 H     7.484080     0.363125    -3.926029
 O     8.131009     0.353141    -3.201630
 H     8.773205     1.049669    -3.398327
 H     3.878545     6.897065    -0.025609
 O     4.614187     6.295771    -0.224606
 H     4.191865     5.441392    -0.465599
 H    -8.004850    -0.121236    -3.186369
 O    -8.903210    -0.140585    -3.576502
 H    -9.493157    -0.409404    -2.870913
 H     5.898336     4.140606    -3.256529
 O     5.458880     3.331987    -2.934596
 H     6.066565     2.926356    -2.271636
 H    -1.070005    -6.932252     0.035299
 O    -1.718741    -6.216506    -0.127393
 H    -2.299092    -6.539776    -0.823322
 H    -3.649831    -7.931860     0.932258
 O    -3.886269    -7.694803     1.832072
 H    -3.714043    -6.725598     1.904835
 H    -2.677486    -5.183627     1.131327
 O    -3.391620    -5.102212     1.784460
 H    -3.137343    -4.378890     2.392593
 H     5.417765    -6.065010     4.686954
 O     4.657610    -5.839564     4.138699
 H     5.014022    -5.890015     3.229054
 H    -9.338359    -6.538843    -3.930403
 O    -9.375724    -6.071947    -4.796714
 H    -9.995781    -6.565553    -5.333839
 H     6.506426    -5.448559     1.128467
 O     6.027642    -6.153343     1.622210
 H     5.479530    -6.560506     0.911137
 H    -1.106155    -6.787768     2.511057
 O    -1.205178    -7.753184     2.563968
 H    -2.159210    -7.918664     2.552979
 H    -9.939637    -4.391979    -4.489924
 O    -10.108266    -3.475189    -4.214292
 H    -9.901442    -2.908761    -4.970079
 H     0.062666     8.035872    -3.177663
 O     0.345018     8.887545    -3.571925
 H     1.239835     9.064187    -3.214061
 H    -8.793417    -8.281094    -2.565538
 O    -9.414790    -7.551479    -2.558467
 H    -9.312230    -7.120605    -1.690633
 H     2.020500     0.736285     4.580532
 O     2.155838    -0.114349     5.040287
 H     2.394231    -0.777632     4.358711
 H    -6.621929     0.210161    -7.571002
 O    -7.583491     0.253579    -7.440996
 H    -7.776593     1.145449    -7.149395
 H     6.002158     4.261073    -7.257971
 O     5.417735     4.166391    -6.505838
 H     4.551443     4.589911    -6.793861
 H    -5.825671     10.073368     0.757310
 O    -5.337468     10.122704    -0.075438
 H    -5.902789     9.619923    -0.694519
 H    -0.806677    -1.066151    -5.759315
 O    -1.001024    -0.411412    -6.465033
 H    -0.241837     0.200248    -6.409429
 H     4.705474    -0.137366    -6.950852
 O     4.829266    -1.068378    -6.737362
 H     5.679864    -1.136788    -6.268590
 H     2.863982    -8.664965    -2.698446
 O     3.817134    -8.559136    -2.665662
 H     4.042205    -7.970461    -3.400479
 H    -4.270072    -0.519581    -7.868671
 O    -4.811209     0.208388    -7.526659
 H    -4.159740     0.875739    -7.211610
 H     1.149604     3.768641     6.709968
 O     1.921743     3.205501     6.913643
 H     2.710743     3.765757     6.794516
 H    -11.252971    -3.099592     0.016848
 O    -10.862819    -2.452162     0.604376
 H    -10.149243    -2.024713     0.098527
 H    -7.522048     1.649480     7.638644
 O    -8.031651     2.469043     7.563230
 H    -8.163058     2.793457     8.453596
 H     7.061288    -8.829692    -1.518241
 O     6.832395    -8.796383    -2.485492
 H     5.926354    -9.130641    -2.547595
 H     6.327632     5.559790    -0.747737
 O     6.995403     4.926908    -1.031584
 H     7.210579     4.396520    -0.237455
 H    -5.264151    -3.091195     5.837175
 O    -5.310602    -2.334383     6.462350
 H    -4.671565    -2.565372     7.158558
 H     2.517752     1.573506     7.491254
 O     3.021900     0.752658     7.397173
 H     2.716465     0.359698     6.552506
 H    -2.602476    -2.980932     7.044133
 O    -3.081642    -3.142305     7.885535
 H    -2.474563    -2.791776     8.553320
 H     5.655898     2.274218     6.683663
 O     5.407388     1.389966     6.408201
 H     4.529696     1.198451     6.800541
 H     2.141045    -4.258432     4.095695
 O     2.628747    -4.187789     4.929990
 H     3.350193    -4.831354     4.830133
 H     10.495469    -2.209938    -1.824059
 O     10.995366    -2.205851    -0.961351
 H     11.921150    -2.131795    -1.186712
 H     3.467895     8.502629    -2.810278
 O     2.764960     9.044424    -2.430902
 H     2.607852     8.679734    -1.540797
 H    -7.906946    -6.782326     0.356862
 O    -8.573083    -6.384713    -0.227060
 H    -8.560120    -5.435778     0.049330
 H    -1.202968     9.695392    -3.169015
 O    -2.147093     9.818378    -2.954187
 H    -2.216422     9.927253    -2.003242
 H     3.893608     4.255339    -3.723927
 O     3.307813     5.018170    -3.740310
 H     3.835531     5.815040    -3.525169
 H     4.833883     6.864506    -1.902632
 O     4.753037     7.078110    -2.852570
 H     5.548527     6.758231    -3.297320
 H    -0.642891     5.157738     6.147978
 O     0.096763     4.715272     5.707979
 H     0.758360     5.390302     5.422361
 H     2.919973     5.703014     5.205670
 O     2.137307     6.113124     4.808547
 H     2.097562     5.787046     3.895469
 H    -7.609587     8.696732    -0.072009
 O    -7.311285     8.492426    -0.968051
 H    -7.037906     7.558396    -0.947180
 H    -1.114573    -5.070679     3.564371
 O    -0.673955    -4.951052     2.692434
 H     0.254926    -5.179464     2.782495
 H     4.298448    -1.960534     6.235548
 O     4.305402    -2.110158     5.265574
 H     3.618432    -2.784677     5.088817
 H     7.373970    -5.861604     3.200048
 O     7.748060    -5.461949     3.999774
 H     7.206880    -4.652062     4.120172
 H     9.206019    -4.413135     3.879183
 O     9.806722    -3.656417     3.754257
 H     9.508147    -2.972272     4.366400
 H     2.648032     8.158006    -7.978928
 O     2.677361     7.616350    -7.191609
 H     1.800110     7.725413    -6.750162
 H    -0.557009    -1.356352     8.122436
 O    -0.734170    -2.005153     8.817944
 H     0.003320    -2.620911     8.785850
 H     8.114951     4.907095    -2.226993
 O     8.789208     4.966550    -2.952098
 H     9.491126     5.510153    -2.594161
 H     6.120286     5.041815    -5.126886
 O     6.427079     5.446216    -4.293797
 H     7.380364     5.329302    -4.211029
 H     10.495827     2.695333    -4.163616
 O     9.768815     2.550870    -3.559925
 H     9.348607     3.423533    -3.389940
 H     3.230913    -2.296875     7.888199
 O     4.040537    -1.750034     7.891826
 H     3.723152    -0.837936     7.976791
 H    -2.387882    -1.980129    -8.766173
 O    -2.809940    -1.670870    -7.965612
 H    -2.124604    -1.189710    -7.453283
 H     4.822979     5.643341     1.589520
 O     4.643860     5.073832     2.348440
 H     3.674531     5.056143     2.450032
 H    -3.517080    -6.397836    -4.835404
 O    -2.733721    -5.848801    -4.913275
 H    -2.998141    -5.079988    -5.442828
 H    -6.860416     5.876621     5.009787
 O    -6.462071     6.721369     4.729807
 H    -6.329066     6.650327     3.758475
 H    -7.659850     3.799981     6.216367
 O    -7.421029     4.246471     5.394357
 H    -7.145273     3.534843     4.794095
 H    -7.708622     9.186696     2.564859
 O    -7.485607     9.594078     1.702880
 H    -7.990954     10.406582     1.659180
 H    -5.680312    -7.176428     1.700753
 O    -6.322563    -6.571115     1.298490
 H    -5.807653    -6.101839     0.607403
 H    -3.575694    -4.877485     7.637184
 O    -3.773037    -5.729125     7.207584
 H    -2.972913    -5.962247     6.722577
 H     9.464317     1.292388    -0.554153
 O     9.471391     2.250771    -0.731393
 H     9.772804     2.338818    -1.641740
 H    -7.792991    -4.535696     3.285962
 O    -6.856306    -4.758179     3.284940
 H    -6.702162    -5.388171     2.551879
 H     1.143335    -2.256295     6.913028
 O     1.678630    -2.975213     7.266457
 H     1.911917    -3.533259     6.508511
 H    -3.364886    -2.953962    -6.808741
 O    -3.748532    -3.602101    -6.199854
 H    -4.702235    -3.512754    -6.278707
 H    -9.087599     7.996858     3.971318
 O    -8.321102     8.562811     4.074442
 H    -7.616337     7.996276     4.453384
 H     8.050374    -1.685981    -5.189692
 O     7.116776    -1.469536    -5.204034
 H     6.678401    -2.137714    -4.642661
 H    -4.686720    -5.122538     5.798270
 O    -4.760371    -4.536638     5.019777
 H    -5.513486    -4.815909     4.479320
 N     7.688861    -8.686469     0.214884
 H     7.283485    -7.891696     0.708310
 H     8.692989    -8.536710     0.177617
 H     7.537758    -9.506555     0.795022
