604
grain_mol26 // -1645.761096949331 // -45.0606285153 // -668.032843524631 // -1022.78888194 // -0.0451920599 // -0.583222482784 // -0.012409201315
 H    -1.779016     0.014428     2.493659
 O    -0.801504     0.048094     2.573263
 H    -0.521936    -0.834920     2.911711
 H    -0.396432    -1.842415    -2.816818
 O    -0.471276    -1.844750    -1.849798
 H    -1.419349    -1.752570    -1.658423
 H    -2.748063     1.885037     0.843299
 O    -2.649057     1.232542     0.129673
 H    -1.864494     1.511565    -0.376537
 H    -3.742794     1.924127    -3.028439
 O    -3.229980     2.259565    -3.800530
 H    -2.326698     2.400640    -3.498287
 H    -0.105465    -0.579768    -0.773833
 O     0.016357     0.161386    -0.149348
 H    -0.409427    -0.114020     0.673005
 H     0.954971    -1.930845    -4.743573
 O     0.017806    -2.113236    -4.563227
 H    -0.069121    -3.078298    -4.584729
 H    -4.947321     2.420591    -1.292800
 O    -4.578129     1.589587    -1.650241
 H    -3.900979     1.325775    -0.982851
 H    -3.559936     3.453862     2.462926
 O    -2.835627     2.833334     2.252929
 H    -2.064433     3.188517     2.732179
 H     2.554425     0.285701    -2.926625
 O     1.951293    -0.341692    -2.478156
 H     1.047278    -0.039280    -2.689495
 H    -1.139903     0.321754    -3.583702
 O    -0.335839     0.809121    -3.308991
 H    -0.586046     1.417487    -2.594246
 H     2.675903    -0.503689     0.595582
 O     2.583398    -1.261181    -0.018206
 H     2.320289    -0.894180    -0.883706
 H    -2.848822    -0.428370    -0.565248
 O    -2.984085    -0.906542    -1.394197
 H    -3.787458    -1.451263    -1.309204
 H     2.817677     1.309355    -0.803491
 O     1.996346     1.821405    -0.695846
 H     1.283575     1.174089    -0.510661
 H     0.559490     3.192179    -3.269657
 O     1.478441     3.015102    -3.029534
 H     1.482953     2.568409    -2.163421
 H     0.134139    -3.939042    -0.466245
 O    -0.102347    -4.636818    -1.119009
 H    -0.880846    -5.084831    -0.721227
 H    -6.249951     2.229675     3.000907
 O    -6.308415     2.447885     3.967879
 H    -7.057697     1.924502     4.314333
 H     1.151350    -3.639231     1.380976
 O     0.733717    -3.003867     0.770769
 H     1.412043    -2.348434     0.507462
 H    -2.908776     5.259225    -1.063521
 O    -2.726456     4.471758    -0.517023
 H    -3.613588     4.106205    -0.318226
 H    -5.505304    -1.195689     1.724392
 O    -5.233972    -0.571771     1.017771
 H    -5.340947    -1.045934     0.187807
 H    -0.332890    -3.092596     3.110498
 O    -0.026366    -2.274443     3.535642
 H     0.917963    -2.175473     3.329364
 H     5.247464     1.077571    -1.161771
 O     4.462177     0.551022    -0.954645
 H     4.693251     0.152387    -0.085692
 H     0.727958     2.473856     1.030840
 O     0.720501     2.152504     1.941704
 H     0.111837     1.394119     2.005339
 H     4.451981    -0.472465    -2.299276
 O     4.652320    -0.973391    -3.122141
 H     5.134488    -0.338959    -3.692288
 H     3.044819     3.305973    -1.031667
 O     3.922423     3.709970    -1.016744
 H     4.407967     3.404059    -1.806790
 H    -5.873742    -1.483972    -1.856495
 O    -5.343783    -2.175539    -1.403290
 H    -5.256473    -2.903047    -2.043190
 H    -4.906219    -3.992950     1.328549
 O    -5.595503    -3.369290     1.033897
 H    -5.365472    -3.099959     0.134406
 H     2.711372     2.148581    -3.679889
 O     3.386046     1.465597    -3.872469
 H     3.457509     1.410122    -4.831005
 H    -5.162812     3.966635     3.690663
 O    -4.592211     4.545877     3.174606
 H    -4.066639     5.091297     3.798292
 H     0.641410     0.982579    -4.726153
 O     1.132034     0.852353    -5.563510
 H     1.739105     0.102806    -5.390504
 H     1.024681     5.808112    -2.365455
 O     1.817805     5.490982    -1.900615
 H     2.372492     5.032262    -2.562379
 H    -2.781385    -3.458440    -1.712374
 O    -2.926198    -3.700775    -0.781454
 H    -3.694561    -4.287342    -0.743322
 H     2.078116     5.149008    -4.605023
 O     1.202773     5.229307    -5.022311
 H     1.192253     4.520260    -5.693118
 H     7.769025     1.894276    -0.918416
 O     6.981130     1.524674    -1.357537
 H     7.341806     0.829450    -1.944870
 H     4.502261     2.848224     0.314788
 O     4.836106     2.505709     1.168744
 H     4.763272     3.266036     1.782323
 H     1.071770    -3.155086    -2.111586
 O     1.930173    -3.008045    -2.533880
 H     2.016424    -2.033079    -2.582623
 H     1.181092     4.653072    -0.653037
 O     0.723441     4.194401     0.087661
 H     0.044746     4.808790     0.419936
 H    -5.743962     1.058643     1.241794
 O    -6.231406     1.888385     1.417264
 H    -7.163539     1.645951     1.184096
 H    -2.268442    -2.588849     0.318323
 O    -1.793319    -2.007125     0.941957
 H    -0.883028    -2.346955     0.944143
 H    -3.676698    -0.242271     4.292206
 O    -3.668976    -0.359583     5.269627
 H    -4.422009    -0.934935     5.534952
 H    -6.057006    -2.783698     3.281250
 O    -5.613993    -1.922171     3.354299
 H    -4.660878    -2.146834     3.356607
 H    -2.857211    -0.405732    -2.977202
 O    -2.595528    -0.486414    -3.921399
 H    -2.435017    -1.454286    -3.982592
 H    -3.435137    -3.412726    -3.653787
 O    -2.576956    -3.026365    -3.412468
 H    -1.882212    -3.663008    -3.674022
 H     3.225992    -1.173777    -4.234813
 O     2.673076    -1.305502    -5.028729
 H     3.305832    -1.486323    -5.742615
 H     4.674387     2.295901    -6.639500
 O     4.145313     1.472211    -6.639861
 H     3.307567     1.698485    -7.052185
 H    -4.183325     1.083096     5.783359
 O    -4.667444     1.911563     6.032017
 H    -5.232090     2.121325     5.260725
 H    -3.948003    -0.029477     2.018082
 O    -3.410210     0.296156     2.759924
 H    -3.328748     1.266775     2.663287
 H    -5.798197     0.577314    -2.237941
 O    -6.339145    -0.096520    -2.699480
 H    -5.911959    -0.203941    -3.571402
 H     1.902346    -3.828129    -4.064955
 O     1.837989    -4.295295    -4.920171
 H     1.461609    -5.166740    -4.706488
 H     4.484885    -3.516149    -0.589763
 O     4.761719    -2.755760    -0.031050
 H     3.997639    -2.133335    -0.043774
 H    -0.248001     3.056867    -0.924702
 O    -0.996346     2.671686    -1.410936
 H    -1.711755     3.330215    -1.290595
 H     1.759069     4.468859     1.516311
 O     2.213144     4.616739     2.365912
 H     2.024796     3.834662     2.907980
 H     3.705332     1.255084     1.639380
 O     2.935847     0.677096     1.808003
 H     2.162192     1.261424     1.927123
 H     3.156029    -3.935382    -2.018832
 O     3.856972    -4.553714    -1.699010
 H     4.534246    -4.573313    -2.392805
 H     4.982279    -3.784866    -4.468485
 O     5.413345    -3.456587    -3.641447
 H     5.004376    -2.598467    -3.410585
 H    -1.082561     5.129837     2.066398
 O    -1.263127     5.673368     1.264047
 H    -1.897168     5.167678     0.693166
 H    -5.690514     3.220412     0.456206
 O    -5.240635     3.714036    -0.255697
 H    -5.693443     4.566994    -0.419498
 H     5.032168    -3.763784     2.976046
 O     4.277853    -3.588777     2.407144
 H     4.609082    -3.315441     1.521778
 H     5.847038    -1.214785     1.363971
 O     5.446369    -0.323128     1.344292
 H     6.229648     0.259644     1.382798
 H     1.650529    -6.656926    -3.059044
 O     1.422502    -6.839827    -3.999734
 H     2.295841    -7.006010    -4.399287
 H    -7.194592    -3.577767     0.843906
 O    -8.162314    -3.578038     0.643253
 H    -8.622078    -3.375815     1.487234
 H     3.242983    -2.338432     2.838294
 O     2.555659    -1.669089     3.018535
 H     2.776332    -0.869546     2.507404
 H    -1.916483     2.788197     5.080748
 O    -2.635339     3.431792     5.221749
 H    -3.374294     2.930870     5.615924
 H    -0.809613     0.997738     3.995004
 O    -0.689652     1.559791     4.793065
 H     0.148554     2.013640     4.653620
 H     0.257489     3.409624    -6.954517
 O     1.212522     3.215479    -6.831068
 H     1.231286     2.370397    -6.342777
 H     7.161856    -2.729772     4.742069
 O     6.407801    -3.187835     4.300348
 H     5.601275    -2.830695     4.741781
 H     7.995390     1.570147     1.380495
 O     7.913216     0.645700     1.681447
 H     8.400108     0.083142     1.050429
 H    -4.085738    -0.509367    -4.638484
 O    -5.014793    -0.556624    -4.972344
 H    -5.003943    -0.192730    -5.878859
 H     6.447853    -1.375611    -2.155731
 O     6.860393    -1.819308    -1.409784
 H     6.131259    -2.093444    -0.821923
 H     4.713195    -0.713506     4.447936
 O     5.122109     0.026365     3.968525
 H     5.070067    -0.150942     3.005057
 H    -0.020225     3.393009     2.856775
 O    -0.650343     4.050363     3.214522
 H    -0.339836     4.321740     4.099992
 H     8.247036    -1.147142    -0.706156
 O     9.034537    -0.764979    -0.259106
 H     9.734640    -1.428422    -0.329545
 H     9.626397    -3.694334     2.181236
 O     9.328101    -3.516286     1.263160
 H     10.092009    -3.358582     0.697640
 H    -2.387179    -2.508117     3.893733
 O    -3.010073    -2.608356     3.163786
 H    -2.556217    -2.286027     2.344546
 H    -2.165895     0.747885    -6.271195
 O    -2.796861     1.493046    -6.319032
 H    -3.048649     1.687378    -5.392294
 H    -1.244832     3.824996    -5.538784
 O    -1.368519     3.778318    -6.515346
 H    -1.956326     3.013392    -6.648869
 H    -4.582083    -6.211008    -1.063603
 O    -5.056084    -5.461986    -0.674208
 H    -5.826582    -5.294933    -1.259441
 H     2.679795    -5.762957    -1.431997
 O     1.854819    -6.289140    -1.346710
 H     1.132222    -5.605430    -1.267660
 H     3.295512    -4.253886    -5.588460
 O     4.256023    -4.242528    -5.855860
 H     4.365226    -3.513919    -6.472581
 H     7.478026     3.567190     2.010165
 O     7.394934     3.199071     1.121414
 H     6.466087     2.863981     1.074724
 H     6.648599    -3.772506     0.378744
 O     7.139165    -4.584187     0.168516
 H     8.026873    -4.415214     0.540312
 H    -7.482526    -4.419878    -2.390689
 O    -7.249694    -5.345736    -2.155490
 H    -7.870481    -5.609823    -1.449589
 H    -4.394881     6.882372     4.857006
 O    -3.507669     6.546608     4.627733
 H    -3.023188     6.352116     5.444558
 H     7.268160     3.692280     4.777593
 O     7.266274     3.280251     3.903739
 H     7.522907     2.349890     4.051187
 H    -5.791081     1.017537     6.943443
 O    -6.558715     0.476749     7.242042
 H    -6.280403    -0.445928     7.118744
 H    -0.454244    -4.833749    -2.839665
 O    -0.628764    -4.749921    -3.794340
 H    -1.217915    -5.468222    -4.058721
 H     6.721672     0.378934     4.325219
 O     7.690857     0.573679     4.278360
 H     7.903343     0.518377     3.319734
 H     4.803620    -6.626881    -3.788659
 O     4.121226    -6.788935    -4.473102
 H     4.268583    -6.121464    -5.150624
 H    -5.909141    -1.907782    -5.206835
 O    -6.522546    -2.675514    -5.307225
 H    -7.377327    -2.261129    -5.593615
 H    -7.656167     0.752977     6.027242
 O    -8.219957     1.073087     5.278126
 H    -8.833327     1.703654     5.659144
 H    -5.242529     5.813672     2.230101
 O    -5.482794     6.721578     1.953952
 H    -4.627213     7.198474     1.928731
 H     5.770619     1.636486    -4.026123
 O     6.011339     0.847556    -4.558755
 H     5.516946     0.925609    -5.377065
 H    -5.886616     6.500134     0.305254
 O    -5.913369     6.261517    -0.644953
 H    -5.025025     6.497487    -0.986668
 H    -0.248505    -7.541267    -3.278953
 O    -0.957038    -7.716786    -2.633495
 H    -0.498262    -7.818811    -1.789124
 H    -2.512703    -1.478453     5.552972
 O    -1.857313    -2.200969     5.702703
 H    -1.025291    -1.728087     5.893957
 H     7.538859    -4.425766    -1.495024
 O     7.660032    -4.420223    -2.468360
 H     6.879588    -3.958457    -2.820257
 H    -8.817174    -2.943550    -3.226524
 O    -7.895483    -2.855745    -2.891265
 H    -7.352779    -2.673102    -3.673514
 H     8.837758    -3.246374    -2.869352
 O     9.467721    -2.522082    -3.073646
 H     8.963293    -1.693344    -2.988744
 H    -5.072283    -4.965179    -3.506162
 O    -5.040665    -4.000809    -3.388710
 H    -5.562074    -3.618770    -4.105606
 H    -3.671750     4.013007    -3.569121
 O    -3.384711     4.872832    -3.221031
 H    -3.674796     5.561624    -3.820322
 H    -0.269312     4.750578    -4.102760
 O    -0.923473     4.059573    -3.895357
 H    -1.707679     4.507316    -3.518793
 H    -1.921071    -3.962923     5.422934
 O    -2.211653    -4.829054     5.096480
 H    -3.145984    -4.690891     4.861470
 H    -2.442470     8.385708    -3.852264
 O    -2.643237     7.431869    -3.944416
 H    -2.445043     7.183257    -4.874198
 H    -3.007020     7.402353     3.149622
 O    -2.936758     7.584872     2.197584
 H    -2.336482     6.892006     1.854042
 H     4.810071     1.687972     4.165019
 O     4.650472     2.640005     3.985131
 H     5.522749     3.000907     3.737670
 H     7.896879    -1.591205     6.264969
 O     8.337770    -1.800363     5.418486
 H     8.290742    -0.960145     4.920991
 H     6.042230    -1.328076     7.778974
 O     6.744082    -0.807744     7.375640
 H     6.281882    -0.063912     6.928577
 H    -1.770288     5.612134    -6.531977
 O    -1.908479     6.554839    -6.352294
 H    -1.039570     6.982041    -6.457093
 H    -8.185845    -0.112067     3.976028
 O    -8.000754    -0.659535     3.199924
 H    -7.094641    -1.001060     3.304287
 H    -8.518570     0.160635     0.219176
 O    -8.550009     0.810909     0.940343
 H    -8.519191     0.278770     1.753631
 H     0.846709    -0.403994     5.920329
 O     0.014332    -0.473916     6.444097
 H    -0.491644     0.293416     6.124830
 H    -0.495146     7.041961    -1.752703
 O    -0.453038     6.643198    -2.645007
 H    -1.309343     6.832626    -3.090501
 H     0.646758    -8.054015     0.827774
 O    -0.246042    -8.353604     0.544102
 H    -0.731145    -8.380688     1.400474
 H     2.013422     2.805536     5.205491
 O     2.022127     2.510086     4.270440
 H     2.962547     2.532936     4.015329
 H    -7.968081    -5.557894    -5.410759
 O    -7.071914    -5.418325    -5.758408
 H    -6.922301    -4.464443    -5.721287
 H     3.061544    -7.436609     1.102263
 O     2.149799    -7.110538     1.113752
 H     2.052499    -6.781505     0.171666
 H     3.288598     5.642857    -7.499771
 O     3.444569     4.680240    -7.606863
 H     2.617548     4.230866    -7.373424
 H    -0.543687     7.038341     0.417479
 O    -0.241583     7.735695    -0.188571
 H    -0.919312     8.425359    -0.146115
 H     4.430749     3.798520     5.166572
 O     4.343513     4.457584     5.897140
 H     5.225602     4.528659     6.271590
 H     7.644396     2.983189     6.757017
 O     7.113048     3.818776     6.669908
 H     7.599506     4.488640     7.149072
 H     4.192411    -7.972201    -0.957881
 O     4.661242    -7.434320    -0.277471
 H     5.098564    -6.761538    -0.832387
 H     6.729916    -5.920371    -2.600230
 O     5.960380    -6.513241    -2.534714
 H     6.293498    -7.426177    -2.456248
 H    -8.986226    -2.053097     3.060794
 O    -9.467996    -2.877298     2.837237
 H    -10.207557    -2.583597     2.278412
 H    -2.709654     8.804176     0.885100
 O    -2.571249     9.147152    -0.013456
 H    -3.369890     9.703152    -0.190988
 H     8.104813     0.844048     7.335412
 O     8.442748     1.533495     6.753538
 H     8.293860     1.192344     5.854629
 H    -2.376360     5.275951     7.598956
 O    -2.098108     5.481331     6.707552
 H    -2.287924     4.665732     6.154316
 H    -6.288102    -6.423001    -3.201659
 O    -5.619612    -6.630974    -3.879937
 H    -6.061614    -6.359230    -4.713550
 H     6.796630    -2.675476     2.720258
 O     6.916852    -2.427416     1.784798
 H     7.863183    -2.507478     1.595402
 H     2.299002     6.751776    -0.934786
 O     2.552440     7.502183    -0.351661
 H     1.707955     7.841613    -0.030488
 H    -4.182930    -7.348536    -2.741767
 O    -3.604979    -7.388446    -1.970404
 H    -2.701727    -7.493718    -2.318776
 H     0.841216     6.672897    -5.730602
 O     0.664658     7.537446    -6.169592
 H     0.681620     8.182108    -5.432303
 H    -8.282229    -1.630299    -1.610595
 O    -8.573353    -1.348963    -0.729320
 H    -8.340338    -2.127466    -0.175125
 H    -3.304145     7.125444    -2.285437
 O    -3.399812     6.960784    -1.337659
 H    -3.098800     7.771946    -0.876868
 H     2.831000    -4.466020     2.398082
 O     1.917124    -4.813612     2.411388
 H     1.980776    -5.707000     2.013782
 H    -8.842316    -0.804527    -4.983367
 O    -8.753465    -1.394314    -5.768096
 H    -8.471341    -0.805379    -6.490199
 H     7.525278    -0.038307    -3.915339
 O     8.170863    -0.057948    -3.190073
 H     8.842154     0.605573    -3.402811
 H     4.191652     6.737206    -0.190427
 O     4.901858     6.101327    -0.373389
 H     4.444965     5.258865    -0.592143
 H    -7.970679     0.134661    -3.182269
 O    -8.868775     0.140907    -3.573262
 H    -9.469942    -0.082437    -2.861336
 H     6.096906     3.816220    -3.345648
 O     5.624051     3.035130    -3.003752
 H     6.214519     2.621755    -2.329773
 H    -1.308027    -6.928778     0.243983
 O    -1.912839    -6.178032     0.055063
 H    -2.513836    -6.509488    -0.628113
 H    -3.946431    -7.736230     1.141767
 O    -4.166401    -7.469336     2.037195
 H    -3.956507    -6.505792     2.086122
 H    -2.854300    -5.025975     1.272576
 O    -3.565347    -4.902906     1.920801
 H    -3.285083    -4.173760     2.511735
 H     5.278433    -6.060509     4.910558
 O     4.521693    -5.827988     4.369123
 H     4.816396    -5.934580     3.448500
 H    -9.567749    -6.239700    -3.761531
 O    -9.584735    -5.794860    -4.639879
 H    -10.226041    -6.274753    -5.164349
 H     6.288560    -5.581709     1.297622
 O     5.778536    -6.162057     1.899114
 H     5.325174    -6.764528     1.294904
 H    -1.351326    -6.659516     2.699965
 O    -1.492206    -7.619729     2.766927
 H    -2.452563    -7.744427     2.762757
 H    -10.079664    -4.085027    -4.377652
 O    -10.209891    -3.155466    -4.125221
 H    -9.980724    -2.617257    -4.895092
 H     0.426688     7.949818    -3.375955
 O     0.743820     8.778589    -3.791867
 H     1.645220     8.927385    -3.437710
 H    -9.095588    -7.967271    -2.349370
 O    -9.685450    -7.212111    -2.363355
 H    -9.566612    -6.763064    -1.506910
 H     2.080355     0.780432     4.571743
 O     2.177902    -0.062653     5.054115
 H     2.391593    -0.753156     4.391262
 H    -6.574592     0.294722    -7.572662
 O    -7.533536     0.380600    -7.444306
 H    -7.689945     1.287197    -7.177126
 H     6.206491     3.828122    -7.348883
 O     5.618165     3.776924    -6.595572
 H     4.770450     4.228519    -6.895483
 H    -5.373819     10.330073     0.497007
 O    -4.883821     10.337482    -0.336108
 H    -5.469204     9.842583    -0.942707
 H    -0.816591    -1.172458    -5.721162
 O    -0.984464    -0.528866    -6.443703
 H    -0.200497     0.052227    -6.403200
 H     4.728918    -0.502833    -6.929387
 O     4.813779    -1.432340    -6.691756
 H     5.660831    -1.524035    -6.220487
 H     2.654049    -9.317741    -2.166635
 O     3.588261    -8.995733    -2.320341
 H     3.548271    -8.418100    -3.095314
 H    -4.254586    -0.538824    -7.848315
 O    -4.765581     0.219038    -7.525444
 H    -4.087259     0.867321    -7.227373
 H     1.334599     3.901368     6.620387
 O     2.082424     3.312052     6.839539
 H     2.894377     3.835421     6.706937
 H    -11.339954    -2.622170     0.092193
 O    -10.922481    -1.977913     0.664187
 H    -10.192650    -1.592171     0.148229
 H    -7.417373     2.165514     7.593311
 O    -7.893242     3.002759     7.495388
 H    -8.011161     3.356105     8.376599
 H     6.213663    -9.005128    -0.997483
 O     6.295610    -9.147319    -1.945263
 H     5.399599    -9.362898    -2.245939
 H     6.584064     5.281452    -0.874397
 O     7.224692     4.614104    -1.141207
 H     7.417859     4.096207    -0.333152
 H    -5.356189    -2.710044     5.918723
 O    -5.371820    -1.936039     6.523642
 H    -4.742750    -2.174352     7.226566
 H     2.610259     1.672398     7.460348
 O     3.079569     0.829014     7.388988
 H     2.759488     0.426795     6.554170
 H    -2.692498    -2.678016     7.125340
 O    -3.178757    -2.797743     7.969589
 H    -2.557742    -2.455621     8.629066
 H     5.775277     2.222182     6.639489
 O     5.489543     1.342814     6.385444
 H     4.605514     1.197091     6.782740
 H     1.995627    -4.226259     4.218596
 O     2.477906    -4.147526     5.054205
 H     3.179817    -4.818507     4.981673
 H     10.428628    -2.679699    -1.744051
 O     10.926995    -2.669586    -0.881622
 H     11.855572    -2.646623    -1.106177
 H     3.848251     8.285127    -3.016567
 O     3.167803     8.864926    -2.652624
 H     2.995906     8.530633    -1.753359
 H    -8.149030    -6.429986     0.533381
 O    -8.796720    -6.020596    -0.062794
 H    -8.745534    -5.066054     0.189401
 H    -0.769623     9.659752    -3.412268
 O    -1.707982     9.826832    -3.201886
 H    -1.772838     9.963562    -2.254228
 H     4.098691     4.001830    -3.818265
 O     3.544592     4.787312    -3.855786
 H     4.104713     5.567102    -3.660552
 H     5.145134     6.616194    -2.064907
 O     5.073241     6.808080    -3.020246
 H     5.855146     6.444337    -3.455324
 H    -0.399082     5.348143     6.019984
 O     0.321072     4.863812     5.592061
 H     1.010936     5.502785     5.290437
 H     3.183412     5.720166     5.069105
 O     2.418283     6.151675     4.660464
 H     2.365708     5.804039     3.756051
 H    -7.212654     9.007078    -0.298377
 O    -6.923245     8.767058    -1.188474
 H    -6.688468     7.823513    -1.142790
 H    -1.290745    -4.916948     3.702489
 O    -0.846971    -4.850237     2.826080
 H     0.075727    -5.099108     2.928437
 H     4.244036    -1.963519     6.300478
 O     4.242019    -2.135004     5.334456
 H     3.530860    -2.788484     5.175042
 H     7.128850    -6.034448     3.303340
 O     7.505802    -5.653814     4.106946
 H     7.029940    -4.813123     4.242675
 H     9.046749    -4.680615     4.016357
 O     9.677749    -3.951523     3.866807
 H     9.409619    -3.240085     4.461163
 H     3.016116     7.840581    -8.175069
 O     3.022418     7.318451    -7.374164
 H     2.150366     7.475168    -6.936931
 H    -0.582340    -1.111540     8.164064
 O    -0.787599    -1.735063     8.874824
 H    -0.074804    -2.380007     8.860920
 H     8.343060     4.516774    -2.333804
 O     9.018971     4.529971    -3.059713
 H     9.743196     5.052285    -2.714739
 H     6.356646     4.658342    -5.238597
 O     6.679204     5.071837    -4.416087
 H     7.626794     4.917725    -4.328287
 H     10.631456     2.158970    -4.208553
 O     9.897474     2.060373    -3.604104
 H     9.514278     2.953837    -3.456679
 H     3.163114    -2.213297     7.959703
 O     3.994164    -1.699833     7.951320
 H     3.714629    -0.773585     8.011144
 H    -2.434493    -2.097369    -8.705491
 O    -2.843167    -1.752724    -7.912455
 H    -2.138785    -1.285775    -7.412734
 H     5.083466     5.488051     1.457839
 O     4.880397     4.946592     2.231062
 H     3.911239     4.971559     2.331761
 H    -3.747800    -6.361027    -4.663072
 O    -2.941083    -5.848904    -4.752515
 H    -3.171172    -5.083412    -5.302867
 H    -6.581698     6.291757     4.855841
 O    -6.148843     7.111764     4.554473
 H    -6.018554     7.010084     3.585523
 H    -7.466236     4.281992     6.115151
 O    -7.209344     4.696507     5.281920
 H    -6.962646     3.958745     4.700966
 H    -7.292172     9.569090     2.324454
 O    -7.052540     9.944186     1.452341
 H    -7.523436     10.775727     1.387134
 H    -5.940229    -6.880259     1.891415
 O    -6.556471    -6.261261     1.470361
 H    -6.022620    -5.830135     0.769283
 H    -3.744058    -4.516298     7.766731
 O    -3.976406    -5.369404     7.357733
 H    -3.185142    -5.648678     6.882755
 H     9.541586     0.895416    -0.565250
 O     9.587466     1.847692    -0.768453
 H     9.893353     1.898373    -1.680111
 H    -7.942542    -4.113608     3.403163
 O    -7.015979    -4.375201     3.408460
 H    -6.888731    -5.029537     2.692210
 H     1.080563    -2.110933     6.980132
 O     1.582466    -2.843041     7.354497
 H     1.796672    -3.428389     6.611161
 H    -3.450014    -2.981331    -6.723697
 O    -3.860750    -3.597127    -6.098848
 H    -4.809765    -3.469094    -6.181416
 H    -8.719299     8.474132     3.759967
 O    -7.930104     9.010507     3.848942
 H    -7.249321     8.425655     4.243551
 H     8.007491    -2.140570    -5.122227
 O     7.082744    -1.889296    -5.146338
 H     6.618211    -2.523075    -4.566839
 H    -4.862453    -4.762872     5.933655
 O    -4.911631    -4.196766     5.138490
 H    -5.676925    -4.457913     4.606369
 N     1.104900    -10.124311    -1.731862
 H     0.681443    -9.821839    -0.854686
 H     1.285048    -11.120645    -1.652341
 H     0.393080    -10.002870    -2.447526
