604
grain_mol80 // -1574.406294721073 // -39.9644947735 // -591.585496654573 // -1022.78529284 // -0.0367238118 // -0.583944083109 // -0.010470735114
 H    -1.771179     0.026054     2.485184
 O    -0.791973     0.025227     2.550568
 H    -0.540649    -0.862745     2.899069
 H    -0.527428    -1.951286    -2.815381
 O    -0.587480    -1.937524    -1.847689
 H    -1.529090    -1.810195    -1.643913
 H    -2.692923     1.908233     0.821573
 O    -2.627140     1.243709     0.115236
 H    -1.839010     1.485800    -0.403645
 H    -3.735546     1.931608    -3.038366
 O    -3.220442     2.238175    -3.821212
 H    -2.308930     2.349178    -3.531614
 H    -0.163015    -0.672774    -0.793192
 O    -0.004705     0.072209    -0.181574
 H    -0.430111    -0.175787     0.650007
 H     0.797088    -2.116623    -4.757221
 O    -0.143691    -2.261537    -4.563516
 H    -0.269121    -3.222481    -4.567852
 H    -4.898461     2.495114    -1.294794
 O    -4.563613     1.647197    -1.646203
 H    -3.889022     1.366589    -0.983043
 H    -3.426161     3.527627     2.428935
 O    -2.726866     2.879625     2.217236
 H    -1.937906     3.211719     2.683992
 H     2.498480     0.066085    -2.991032
 O     1.879354    -0.534130    -2.527892
 H     0.983762    -0.201614    -2.730619
 H    -1.199527     0.227220    -3.602792
 O    -0.374410     0.689024    -3.345548
 H    -0.593629     1.315314    -2.636099
 H     2.636525    -0.681132     0.540325
 O     2.511495    -1.442170    -0.063434
 H     2.247764    -1.076894    -0.929279
 H    -2.895732    -0.420099    -0.553311
 O    -3.059033    -0.901347    -1.375348
 H    -3.879466    -1.417272    -1.272557
 H     2.826619     1.106647    -0.885409
 O     2.026763     1.651197    -0.776283
 H     1.292676     1.033589    -0.571529
 H     0.607343     3.037922    -3.350356
 O     1.522541     2.832148    -3.118252
 H     1.520932     2.395782    -2.246756
 H    -0.040085    -4.037197    -0.442516
 O    -0.303777    -4.736003    -1.083129
 H    -1.096450    -5.150420    -0.671655
 H    -6.152446     2.409690     3.016267
 O    -6.190546     2.643639     3.980498
 H    -6.953354     2.152198     4.343973
 H     1.007345    -3.746155     1.388952
 O     0.608014    -3.104860     0.772901
 H     1.306302    -2.478021     0.494657
 H    -2.755739     5.259892    -1.130391
 O    -2.594574     4.473835    -0.575432
 H    -3.491749     4.143505    -0.359938
 H    -5.548625    -1.057370     1.779065
 O    -5.264346    -0.453018     1.060380
 H    -5.398618    -0.935112     0.238929
 H    -0.432728    -3.123700     3.129796
 O    -0.090902    -2.309493     3.536412
 H     0.853869    -2.249921     3.318756
 H     5.241558     0.782851    -1.270380
 O     4.440620     0.287544    -1.047764
 H     4.667775    -0.107884    -0.175758
 H     0.802468     2.370739     0.957572
 O     0.797523     2.062876     1.872805
 H     0.162137     1.328413     1.956894
 H     4.375481    -0.753442    -2.376371
 O     4.548176    -1.272508    -3.194668
 H     5.044387    -0.662887    -3.779552
 H     3.123741     3.091662    -1.142990
 O     4.014837     3.466589    -1.145891
 H     4.479059     3.129354    -1.936402
 H    -5.973898    -1.380566    -1.793273
 O    -5.462452    -2.083810    -1.337467
 H    -5.410573    -2.823830    -1.966847
 H    -5.057585    -3.879555     1.415564
 O    -5.727082    -3.234353     1.120148
 H    -5.498246    -2.988027     0.213929
 H     2.713293     1.911258    -3.771803
 O     3.361726     1.202831    -3.963487
 H     3.417025     1.131080    -4.922006
 H    -4.993867     4.114867     3.668188
 O    -4.409230     4.666381     3.137553
 H    -3.856064     5.199754     3.747694
 H     0.588998     0.807456    -4.776303
 O     1.065576     0.649033    -5.617140
 H     1.645506    -0.120752    -5.441516
 H     1.177799     5.647802    -2.487166
 O     1.966563     5.309638    -2.029263
 H     2.492530     4.819492    -2.691843
 H    -2.954656    -3.464388    -1.660750
 O    -3.099479    -3.681149    -0.724218
 H    -3.883235    -4.245668    -0.666614
 H     2.178475     4.919621    -4.731805
 O     1.301621     5.026896    -5.139100
 H     1.255691     4.309535    -5.799611
 H     7.795096     1.509182    -1.069540
 O     6.988169     1.164706    -1.494292
 H     7.314989     0.447968    -2.075535
 H     4.578536     2.609579     0.193461
 O     4.915465     2.259575     1.043242
 H     4.867142     3.007819     1.666881
 H     0.903164    -3.309279    -2.108834
 O     1.760257    -3.198877    -2.546043
 H     1.880624    -2.228113    -2.607892
 H     1.313634     4.511663    -0.761359
 O     0.852134     4.080611    -0.007400
 H     0.197688     4.721580     0.324300
 H    -5.711814     1.197126     1.267893
 O    -6.166141     2.046946     1.436804
 H    -7.109555     1.835178     1.219207
 H    -2.383834    -2.586992     0.353791
 O    -1.878735    -2.012909     0.960930
 H    -0.982644    -2.388254     0.958773
 H    -3.654252    -0.137689     4.310578
 O    -3.638624    -0.240608     5.289375
 H    -4.407954    -0.785370     5.572207
 H    -6.138111    -2.602969     3.363953
 O    -5.663505    -1.757013     3.419579
 H    -4.719197    -2.016480     3.413534
 H    -2.934132    -0.428310    -2.965446
 O    -2.686339    -0.530714    -3.911532
 H    -2.563979    -1.504986    -3.961171
 H    -3.629695    -3.421311    -3.591769
 O    -2.753558    -3.062772    -3.371496
 H    -2.087946    -3.730648    -3.629248
 H     3.099800    -1.434596    -4.286645
 O     2.533182    -1.559118    -5.071931
 H     3.150149    -1.769515    -5.791351
 H     4.642717     1.947133    -6.757750
 O     4.084670     1.143073    -6.739886
 H     3.250254     1.393845    -7.144851
 H    -4.093155     1.225907     5.789253
 O    -4.543575     2.075041     6.032155
 H    -5.109995     2.294647     5.265069
 H    -3.946641     0.054504     2.037197
 O    -3.387402     0.370985     2.767115
 H    -3.272822     1.336469     2.656301
 H    -5.827888     0.671829    -2.203783
 O    -6.399257     0.012974    -2.649749
 H    -5.987134    -0.122556    -3.524842
 H     1.680098    -4.038226    -4.060248
 O     1.596222    -4.519487    -4.906691
 H     1.167348    -5.361548    -4.683196
 H     4.318879    -3.771561    -0.624760
 O     4.631706    -3.014148    -0.082757
 H     3.889927    -2.364469    -0.092346
 H    -0.174710     2.964088    -0.992990
 O    -0.941858     2.601083    -1.466324
 H    -1.632422     3.285558    -1.344717
 H     1.914445     4.330888     1.401881
 O     2.397350     4.470458     2.236919
 H     2.179864     3.711975     2.801975
 H     3.743324     1.050426     1.549748
 O     2.953706     0.505516     1.729258
 H     2.204511     1.120095     1.854497
 H     2.956520    -4.161135    -2.030771
 O     3.639683    -4.802540    -1.715704
 H     4.308485    -4.845583    -2.416817
 H     4.757326    -4.109108    -4.506482
 O     5.209241    -3.788701    -3.687773
 H     4.837341    -2.911384    -3.464245
 H    -0.894682     5.106369     1.978566
 O    -1.064061     5.644415     1.169513
 H    -1.725257     5.155367     0.615144
 H    -5.589387     3.344216     0.451516
 O    -5.130705     3.812460    -0.272113
 H    -5.555268     4.678444    -0.442155
 H     4.904021    -3.987684     2.939421
 O     4.150302    -3.800283     2.373481
 H     4.480600    -3.546399     1.482718
 H     5.790013    -1.496574     1.278839
 O     5.421831    -0.591533     1.246754
 H     6.225671    -0.036891     1.273527
 H     1.314521    -6.851781    -2.911672
 O     1.113042    -7.086649    -3.843234
 H     1.979173    -7.202492    -4.260777
 H    -7.334565    -3.387923     0.952294
 O    -8.304349    -3.354555     0.763416
 H    -8.745407    -3.125481     1.610374
 H     3.165880    -2.504753     2.801045
 O     2.505211    -1.808952     2.978069
 H     2.749136    -1.023925     2.455557
 H    -1.774601     2.837836     5.035463
 O    -2.468496     3.508739     5.174657
 H    -3.219400     3.040527     5.586038
 H    -0.747277     0.993338     3.960905
 O    -0.597575     1.562444     4.748573
 H     0.256036     1.981798     4.594927
 H     0.265723     3.217183    -7.033476
 O     1.214807     2.990112    -6.919023
 H     1.208759     2.151543    -6.419396
 H     7.091447    -3.011486     4.661497
 O     6.315807    -3.448493     4.234019
 H     5.528794    -3.056267     4.682123
 H     8.040366     1.210569     1.228171
 O     7.924234     0.294207     1.539727
 H     8.384376    -0.295148     0.913610
 H    -4.186670    -0.508903    -4.610049
 O    -5.120819    -0.526032    -4.931768
 H    -5.108703    -0.175649    -5.843427
 H     6.339067    -1.723956    -2.244058
 O     6.744646    -2.178331    -1.500691
 H     6.014123    -2.413266    -0.897336
 H     4.713924    -0.914013     4.371956
 O     5.142027    -0.197386     3.874584
 H     5.070505    -0.386429     2.915839
 H     0.113703     3.341608     2.782067
 O    -0.485382     4.029417     3.135121
 H    -0.156364     4.299413     4.015433
 H     8.163589    -1.545255    -0.821714
 O     8.970637    -1.184692    -0.392138
 H     9.644925    -1.874694    -0.458689
 H     9.484413    -4.101655     2.085390
 O     9.182244    -3.927675     1.167215
 H     9.945147    -3.803128     0.592377
 H    -2.452546    -2.453403     3.927993
 O    -3.088759    -2.537761     3.207664
 H    -2.633648    -2.245703     2.378148
 H    -2.244152     0.655118    -6.283258
 O    -2.846979     1.422921    -6.333747
 H    -3.080685     1.638062    -5.406766
 H    -1.202181     3.705854    -5.605341
 O    -1.339113     3.650491    -6.579672
 H    -1.956591     2.906106    -6.695264
 H    -4.845171    -6.139915    -0.948028
 O    -5.286371    -5.366865    -0.565188
 H    -6.057291    -5.181918    -1.143636
 H     2.439735    -5.943021    -1.406005
 O     1.618068    -6.462752    -1.296369
 H     0.876968    -5.805194    -1.189219
 H     3.041741    -4.533892    -5.597520
 O     3.997861    -4.565145    -5.877218
 H     4.126891    -3.848135    -6.503900
 H     7.581586     3.230152     1.835569
 O     7.502640     2.852931     0.943831
 H     6.554545     2.559238     0.924419
 H     6.485624    -4.094260     0.322340
 O     6.943028    -4.925938     0.113574
 H     7.840713    -4.785081     0.474130
 H    -7.695366    -4.261627    -2.265720
 O    -7.493830    -5.192386    -2.022560
 H    -8.113168    -5.424784    -1.304379
 H    -4.105307     7.016121     4.784976
 O    -3.233823     6.646080     4.548736
 H    -2.746404     6.443771     5.362172
 H     7.462224     3.339251     4.728301
 O     7.460872     3.012215     3.803820
 H     7.736316     2.078896     3.898664
 H    -5.687150     1.234661     6.969806
 O    -6.470298     0.726524     7.285004
 H    -6.227194    -0.207344     7.171244
 H    -0.693935    -4.943454    -2.791930
 O    -0.871653    -4.866285    -3.747064
 H    -1.492567    -5.564081    -3.993239
 H     6.758646     0.105967     4.210222
 O     7.733912     0.257825     4.144894
 H     7.930530     0.186261     3.185569
 H     4.511667    -6.909335    -3.789668
 O     3.803070    -7.081317    -4.446740
 H     3.940499    -6.435886    -5.148021
 H    -6.067215    -1.847290    -5.136232
 O    -6.709195    -2.593122    -5.219184
 H    -7.552133    -2.151800    -5.500189
 H    -7.572076     1.026301     6.080195
 O    -8.133285     1.357227     5.333746
 H    -8.718634     2.014420     5.713796
 H    -5.024952     5.943854     2.184089
 O    -5.235428     6.855961     1.897200
 H    -4.363648     7.301064     1.855594
 H     5.747156     1.283145    -4.148797
 O     5.952908     0.479302    -4.673435
 H     5.451070     0.564357    -5.486580
 H    -5.668457     6.627183     0.257536
 O    -5.715918     6.377687    -0.689155
 H    -4.823910     6.575902    -1.044521
 H    -0.573151    -7.540431    -2.960892
 O    -1.267767    -7.624289    -2.297400
 H    -0.870136    -7.961626    -1.486041
 H    -2.519603    -1.397788     5.574110
 O    -1.889218    -2.141609     5.725657
 H    -1.038093    -1.696946     5.900268
 H     7.327288    -4.804151    -1.553663
 O     7.431127    -4.823580    -2.529417
 H     6.669069    -4.328831    -2.876979
 H    -8.985460    -2.748962    -3.106318
 O    -8.057095    -2.688933    -2.783767
 H    -7.517941    -2.538641    -3.575180
 H     8.649732    -3.692715    -2.962669
 O     9.301613    -2.995153    -3.186456
 H     8.829888    -2.146940    -3.104850
 H    -5.320293    -4.910524    -3.402382
 O    -5.250343    -3.945993    -3.300955
 H    -5.768277    -3.555783    -4.015811
 H    -3.595223     4.008921    -3.607951
 O    -3.271099     4.862493    -3.277192
 H    -3.545967     5.552939    -3.881663
 H    -0.175843     4.615403    -4.194253
 O    -0.850855     3.950755    -3.969310
 H    -1.614629     4.430831    -3.590085
 H    -2.021041    -3.903631     5.471288
 O    -2.347079    -4.763093     5.161180
 H    -3.278392    -4.594351     4.934529
 H    -2.211440     8.329864    -3.968119
 O    -2.446289     7.382491    -4.044111
 H    -2.270779     7.114444    -4.972991
 H    -2.721920     7.461803     3.053573
 O    -2.655963     7.629334     2.098258
 H    -2.086382     6.909891     1.757696
 H     4.857573     1.449583     4.078022
 O     4.766831     2.405798     3.857021
 H     5.700811     2.660184     3.691950
 H     7.886217    -1.882399     6.159146
 O     8.307065    -2.121025     5.309594
 H     8.285422    -1.284475     4.803480
 H     6.061723    -1.525451     7.692590
 O     6.776784    -1.040199     7.269562
 H     6.337240    -0.280184     6.823004
 H    -1.675340     5.497249    -6.617108
 O    -1.776406     6.446729    -6.448658
 H    -0.894191     6.840396    -6.570881
 H    -8.159066     0.153482     4.048154
 O    -8.004055    -0.410009     3.277001
 H    -7.110003    -0.783969     3.374973
 H    -8.529871     0.387677     0.292235
 O    -8.528272     1.048674     1.004361
 H    -8.506457     0.526767     1.824617
 H     0.881133    -0.441175     5.885844
 O     0.052634    -0.474855     6.419201
 H    -0.428424     0.306960     6.097011
 H    -0.288224     6.944255    -1.873339
 O    -0.270280     6.532994    -2.760741
 H    -1.125208     6.746311    -3.198644
 H     0.308386    -8.053732     0.780871
 O    -0.608889    -8.277588     0.561271
 H    -1.048882    -8.300913     1.438751
 H     2.154816     2.714705     5.111755
 O     2.140611     2.408607     4.179131
 H     3.079041     2.390269     3.917131
 H    -8.260288    -5.421564    -5.264225
 O    -7.365154    -5.318427    -5.626969
 H    -7.180131    -4.370460    -5.602536
 H     2.788356    -7.675751     1.213432
 O     1.913412    -7.282110     1.170008
 H     1.827670    -6.971336     0.232228
 H     3.368834     5.330660    -7.647240
 O     3.488809     4.361523    -7.741789
 H     2.648656     3.945802    -7.493063
 H    -0.308396     6.971297     0.296613
 O     0.012901     7.649523    -0.321524
 H    -0.639758     8.363268    -0.281275
 H     4.556226     3.656156     5.066980
 O     4.362571     4.454703     5.613710
 H     5.143550     5.037726     5.467395
 H     7.854135     2.662061     6.698784
 O     7.305102     3.480588     6.577218
 H     7.861004     4.179667     6.939806
 H     3.748719    -8.194842    -0.876492
 O     4.294285    -7.660199    -0.276586
 H     4.749064    -7.045997    -0.875399
 H     6.451737    -6.274700    -2.627392
 O     5.664948    -6.845942    -2.550577
 H     5.973448    -7.765552    -2.459951
 H    -9.041402    -1.768791     3.169567
 O    -9.556219    -2.577398     2.963703
 H    -10.291291    -2.264309     2.409565
 H    -2.402253     8.821242     0.766174
 O    -2.262430     9.147270    -0.138572
 H    -3.043039     9.729217    -0.313903
 H     8.198545     0.535159     7.191729
 O     8.582908     1.188545     6.597167
 H     8.381944     0.862251     5.704337
 H    -2.111639     5.373298     7.524293
 O    -1.841363     5.557884     6.625959
 H    -2.064662     4.741455     6.086901
 H    -6.582948    -6.319712    -3.065364
 O    -5.931995    -6.556903    -3.750851
 H    -6.376237    -6.281196    -4.581636
 H     6.701582    -2.970973     2.644899
 O     6.818715    -2.744200     1.703028
 H     7.759991    -2.857006     1.505996
 H     2.502866     6.563198    -1.087887
 O     2.793994     7.309633    -0.516652
 H     1.966827     7.685124    -0.189634
 H    -4.506303    -7.315878    -2.622450
 O    -3.933966    -7.356247    -1.847666
 H    -3.033599    -7.517287    -2.182801
 H     0.983140     6.472831    -5.862804
 O     0.833617     7.337310    -6.311740
 H     0.882309     7.990861    -5.583882
 H    -8.382423    -1.435240    -1.514973
 O    -8.651728    -1.131144    -0.634307
 H    -8.440068    -1.910231    -0.072075
 H    -3.098251     7.123245    -2.373216
 O    -3.186533     6.974778    -1.422128
 H    -2.851417     7.780827    -0.976273
 H     2.671306    -4.621422     2.395582
 O     1.745255    -4.932882     2.423956
 H     1.766707    -5.836423     2.046840
 H    -8.955272    -0.634614    -4.891876
 O    -8.897946    -1.237532    -5.669589
 H    -8.603991    -0.669118    -6.403199
 H     7.441678    -0.451409    -4.036461
 O     8.095285    -0.486504    -3.319014
 H     8.787970     0.148899    -3.548458
 H     4.397367     6.491344    -0.373049
 O     5.083877     5.824804    -0.541181
 H     4.595718     4.998081    -0.758337
 H    -8.027045     0.295979    -3.115247
 O    -8.929199     0.330738    -3.495330
 H    -9.528808     0.137400    -2.773347
 H     6.162369     3.458001    -3.503335
 O     5.665040     2.701112    -3.142488
 H     6.249279     2.273752    -2.471709
 H    -1.595639    -6.899654     0.307998
 O    -2.187871    -6.143158     0.119767
 H    -2.802749    -6.448687    -0.554180
 H    -4.233311    -7.660190     1.269901
 O    -4.438250    -7.370027     2.161792
 H    -4.190223    -6.415128     2.193966
 H    -3.047318    -4.989579     1.348238
 O    -3.744959    -4.827768     2.003953
 H    -3.427866    -4.103202     2.580629
 H     5.089896    -6.268756     4.901445
 O     4.335507    -6.018181     4.364789
 H     4.615264    -6.145668     3.442879
 H    -9.861768    -6.022989    -3.585786
 O    -9.874488    -5.589223    -4.469886
 H    -10.538625    -6.053452    -4.979835
 H     6.071508    -5.876626     1.264594
 O     5.548121    -6.431543     1.878758
 H     5.064038    -7.024745     1.292174
 H    -1.585914    -6.656220     2.775778
 O    -1.758950    -7.609119     2.860210
 H    -2.722893    -7.699726     2.872466
 H    -10.303214    -3.859757    -4.225007
 O    -10.396405    -2.922464    -3.984791
 H    -10.157282    -2.404062    -4.765098
 H     0.645198     7.795826    -3.520915
 O     0.987629     8.606576    -3.952350
 H     1.897833     8.727570    -3.611530
 H    -9.434908    -7.747209    -2.156641
 O    -9.997248    -6.971342    -2.173445
 H    -9.850651    -6.515828    -1.324715
 H     2.140173     0.679710     4.504527
 O     2.210750    -0.160583     4.996013
 H     2.391883    -0.867296     4.341535
 H    -6.682288     0.346185    -7.524196
 O    -7.635723     0.468984    -7.385744
 H    -7.755734     1.383950    -7.128479
 H     6.220558     3.413039    -7.506371
 O     5.640841     3.394190    -6.744883
 H     4.805788     3.871519    -7.041334
 H    -5.013474     10.438606     0.389764
 O    -4.534237     10.416510    -0.449381
 H    -5.145494     9.935268    -1.041401
 H    -0.959344    -1.305080    -5.723257
 O    -1.111094    -0.666228    -6.453328
 H    -0.306598    -0.113296    -6.429832
 H     4.590918    -0.856637    -7.009780
 O     4.646119    -1.784998    -6.759036
 H     5.495760    -1.899366    -6.297698
 H     2.156308    -9.041242    -2.404429
 O     3.114975    -9.002945    -2.415897
 H     3.351107    -8.447685    -3.173658
 H    -4.398078    -0.575465    -7.816747
 O    -4.876467     0.205348    -7.498715
 H    -4.171310     0.832070    -7.217872
 H     1.530484     3.849605     6.521191
 O     2.257345     3.233834     6.737853
 H     3.082621     3.729018     6.595332
 H    -11.451668    -2.292107     0.239052
 O    -11.004727    -1.654232     0.795756
 H    -10.267224    -1.303749     0.265706
 H    -7.262299     2.450244     7.623143
 O    -7.708403     3.303123     7.519838
 H    -7.802011     3.671840     8.397664
 H     5.836163    -9.329526    -0.973616
 O     5.900441    -9.480028    -1.921753
 H     5.003694    -9.685757    -2.214191
 H     6.733991     4.937430    -1.056630
 O     7.347268     4.243649    -1.319040
 H     7.531310     3.731861    -0.505476
 H    -5.401316    -2.519499     5.991834
 O    -5.380987    -1.737074     6.585975
 H    -4.751992    -1.988928     7.284268
 H     2.739792     1.588989     7.375432
 O     3.170138     0.724532     7.313513
 H     2.831116     0.327527     6.484755
 H    -2.723048    -2.568883     7.164918
 O    -3.202559    -2.658783     8.016721
 H    -2.560609    -2.331198     8.663461
 H     5.921042     2.021245     6.480282
 O     5.593593     1.140506     6.266463
 H     4.712210     1.046220     6.678762
 H     1.866137    -4.326538     4.222979
 O     2.362550    -4.253891     5.050782
 H     3.037783    -4.951466     4.980292
 H     10.275755    -3.169188    -1.865021
 O     10.783855    -3.166141    -1.008941
 H     11.710167    -3.179252    -1.243527
 H     4.081330     8.010552    -3.209276
 O     3.429073     8.620454    -2.843255
 H     3.254715     8.303790    -1.938351
 H    -8.395752    -6.207367     0.692746
 O    -9.036367    -5.782433     0.099562
 H    -8.946912    -4.827264     0.337828
 H    -0.488127     9.548108    -3.565793
 O    -1.416920     9.752033    -3.346408
 H    -1.465304     9.903497    -2.400003
 H     4.165854     3.709231    -3.954497
 O     3.640574     4.514114    -3.994866
 H     4.230872     5.275472    -3.820040
 H     5.332942     6.307726    -2.250966
 O     5.253956     6.489939    -3.206340
 H     6.014170     6.090511    -3.648942
 H    -0.155863     5.351164     5.921401
 O     0.539377     4.836534     5.489276
 H     1.242138     5.454346     5.160838
 H     3.224491     5.532635     4.767265
 O     2.525802     6.135917     4.413768
 H     2.399325     5.827119     3.498716
 H    -6.909829     9.172995    -0.364725
 O    -6.639849     8.910856    -1.254701
 H    -6.439794     7.959835    -1.198780
 H    -1.448570    -4.902906     3.756867
 O    -1.011574    -4.856438     2.875876
 H    -0.100725    -5.148033     2.968683
 H     4.224850    -2.117855     6.244499
 O     4.203886    -2.305684     5.281203
 H     3.465676    -2.932841     5.141666
 H     6.919910    -6.332025     3.270803
 O     7.320752    -5.954514     4.063751
 H     6.877867    -5.094776     4.194273
 H     8.895320    -5.039478     3.940984
 O     9.549728    -4.336084     3.770930
 H     9.316325    -3.607226     4.359218
 H     3.168114     7.526605    -8.349854
 O     3.166089     7.016359    -7.541260
 H     2.305445     7.210385    -7.096195
 H    -0.543707    -1.066294     8.156045
 O    -0.763095    -1.672792     8.877277
 H    -0.073909    -2.342933     8.863896
 H     8.445887     4.088894    -2.528148
 O     9.111053     4.069322    -3.262973
 H     9.859276     4.567917    -2.934521
 H     6.427057     4.266094    -5.410404
 O     6.775317     4.677684    -4.597183
 H     7.717873     4.490558    -4.520278
 H     10.622063     1.624381    -4.398183
 O     9.892385     1.561314    -3.783817
 H     9.543899     2.470010    -3.644993
 H     3.155410    -2.305538     7.921155
 O     4.005180    -1.824920     7.893516
 H     3.762575    -0.887364     7.943245
 H    -2.647006    -2.211230    -8.674680
 O    -3.032494    -1.840027    -7.882053
 H    -2.305331    -1.393147    -7.397245
 H     5.209072     5.256230     1.192850
 O     5.071307     4.784662     2.034106
 H     4.098282     4.806540     2.156502
 H    -4.059034    -6.370042    -4.555372
 O    -3.236670    -5.887332    -4.665137
 H    -3.449528    -5.121554    -5.221816
 H    -6.312173     6.505687     4.819053
 O    -5.854178     7.305399     4.500571
 H    -5.740066     7.185597     3.531795
 H    -7.252768     4.547220     6.116653
 O    -6.992028     4.940731     5.274452
 H    -6.779609     4.186468     4.701123
 H    -6.935111     9.772626     2.250766
 O    -6.692749     10.127351     1.370835
 H    -7.134844     10.974071     1.299711
 H    -6.188148    -6.719757     2.028590
 O    -6.787223    -6.083244     1.608222
 H    -6.246732    -5.682192     0.894293
 H    -3.832005    -4.358601     7.844558
 O    -4.100887    -5.208014     7.450594
 H    -3.326861    -5.522700     6.969331
 H     9.533811     0.452887    -0.723634
 O     9.610117     1.399909    -0.941915
 H     9.907565     1.426012    -1.857396
 H    -8.069023    -3.862417     3.527482
 O    -7.152315    -4.156503     3.524993
 H    -7.057487    -4.825437     2.816925
 H     1.066512    -2.141072     6.965764
 O     1.544062    -2.887268     7.344158
 H     1.727945    -3.489390     6.606307
 H    -3.669497    -3.029235    -6.668816
 O    -4.092916    -3.621552    -6.030167
 H    -5.038013    -3.461835    -6.101803
 H    -8.382781     8.750178     3.718973
 O    -7.573388     9.258374     3.790204
 H    -6.909532     8.654354     4.184949
 H     7.832683    -2.585337    -5.219504
 O     6.916705    -2.303173    -5.236519
 H     6.438043    -2.910570    -4.641136
 H    -4.982282    -4.588685     6.028973
 O    -5.021908    -4.030732     5.227559
 H    -5.801860    -4.272308     4.707581
 N     6.166712     6.295753     4.527254
 H     7.163720     6.484442     4.519570
 H     5.692737     7.190229     4.618028
 H     5.918094     5.924210     3.607855
