604
grain_mol110 // -1788.466992934406 // -55.2163706969 // -820.898728571306 // -1022.78463506 // -0.0539792647 // -0.583900701607 // -0.015180152055
 H    -1.770136     0.106222     2.518720
 O    -0.791895     0.129933     2.596706
 H    -0.524174    -0.744044     2.966485
 H    -0.418398    -1.949971    -2.715950
 O    -0.490763    -1.931109    -1.748462
 H    -1.437226    -1.814111    -1.560883
 H    -2.716213     1.927964     0.803109
 O    -2.624467     1.247912     0.114809
 H    -1.839479     1.500722    -0.404139
 H    -3.715221     1.840310    -3.066197
 O    -3.199275     2.144335    -3.848914
 H    -2.292862     2.279953    -3.554287
 H    -0.108788    -0.628890    -0.725454
 O     0.028879     0.131307    -0.127401
 H    -0.405487    -0.104956     0.702669
 H     0.952413    -2.045695    -4.618779
 O     0.013201    -2.210332    -4.411554
 H    -0.068560    -3.175441    -4.480986
 H    -4.910980     2.414212    -1.349245
 O    -4.552004     1.566451    -1.675864
 H    -3.878588     1.317746    -0.999644
 H    -3.506909     3.564194     2.365008
 O    -2.790309     2.927662     2.177554
 H    -2.014641     3.290084     2.643638
 H     2.560477     0.126465    -2.909143
 O     1.951420    -0.481285    -2.441480
 H     1.050386    -0.172082    -2.659477
 H    -1.132964     0.187012    -3.567396
 O    -0.319560     0.668930    -3.307012
 H    -0.562950     1.309051    -2.618288
 H     2.675917    -0.538393     0.638066
 O     2.576525    -1.315879     0.050374
 H     2.313156    -0.975402    -0.826077
 H    -2.850344    -0.433643    -0.519714
 O    -2.988197    -0.942355    -1.329645
 H    -3.802250    -1.469403    -1.229330
 H     2.839485     1.221193    -0.825188
 O     2.025405     1.747343    -0.735399
 H     1.303731     1.117262    -0.526099
 H     0.604805     3.044520    -3.358098
 O     1.521120     2.862702    -3.110450
 H     1.518081     2.448777    -2.228485
 H     0.091409    -3.977413    -0.299349
 O    -0.147023    -4.700206    -0.923656
 H    -0.936136    -5.120942    -0.510625
 H    -6.211613     2.394549     2.948210
 O    -6.265978     2.648494     3.906903
 H    -7.021656     2.147638     4.272284
 H     1.110717    -3.621895     1.537916
 O     0.704248    -3.006314     0.900947
 H     1.389131    -2.366562     0.618311
 H    -2.835964     5.231969    -1.225431
 O    -2.662764     4.463338    -0.649877
 H    -3.554455     4.116703    -0.437362
 H    -5.512436    -1.084045     1.794615
 O    -5.232345    -0.488790     1.067149
 H    -5.347444    -0.989976     0.254036
 H    -0.364445    -2.996187     3.248334
 O    -0.045400    -2.166495     3.641798
 H     0.899452    -2.088238     3.431083
 H     5.264976     0.947074    -1.176855
 O     4.475564     0.434172    -0.952100
 H     4.700968     0.067919    -0.067629
 H     0.766164     2.478990     0.967816
 O     0.757826     2.188638     1.889037
 H     0.137688     1.442306     1.980534
 H     4.449613    -0.635076    -2.257650
 O     4.644937    -1.168515    -3.061778
 H     5.131599    -0.558197    -3.654783
 H     3.091443     3.207479    -1.125416
 O     3.975523     3.597560    -1.124949
 H     4.454252     3.258723    -1.905383
 H    -5.887994    -1.495429    -1.772288
 O    -5.364049    -2.175189    -1.294347
 H    -5.291912    -2.927101    -1.908168
 H    -4.949832    -3.900452     1.499622
 O    -5.630256    -3.276984     1.184510
 H    -5.399919    -3.044497     0.274653
 H     2.742486     1.957544    -3.726830
 O     3.409762     1.260429    -3.895383
 H     3.475428     1.171129    -4.851899
 H    -5.101993     4.141129     3.574053
 O    -4.524025     4.694144     3.037748
 H    -3.991288     5.254762     3.641400
 H     0.664813     0.788684    -4.726690
 O     1.170161     0.632094    -5.550949
 H     1.747005    -0.134551    -5.359435
 H     1.102035     5.684499    -2.546568
 O     1.891882     5.373670    -2.071589
 H     2.439100     4.884715    -2.717584
 H    -2.827302    -3.497657    -1.559302
 O    -2.965803    -3.711364    -0.620643
 H    -3.745871    -4.280528    -0.557897
 H     2.145143     4.931496    -4.762924
 O     1.270361     5.008500    -5.181338
 H     1.248783     4.276101    -5.826876
 H     7.797848     1.739949    -0.962193
 O     7.005591     1.362724    -1.386723
 H     7.357512     0.644091    -1.949905
 H     4.544618     2.778639     0.236087
 O     4.875864     2.462127     1.101191
 H     4.812684     3.244875     1.687322
 H     1.037438    -3.264091    -1.974404
 O     1.890766    -3.147082    -2.417882
 H     1.993945    -2.174072    -2.488077
 H     1.245733     4.590131    -0.794107
 O     0.784354     4.164262    -0.036291
 H     0.112662     4.798148     0.273320
 H    -5.722526     1.154537     1.232128
 O    -6.199008     1.996314     1.378526
 H    -7.134465     1.757256     1.154155
 H    -2.295761    -2.568228     0.439242
 O    -1.811445    -1.970543     1.040822
 H    -0.906436    -2.322815     1.054784
 H    -3.668780    -0.062439     4.326552
 O    -3.661231    -0.144372     5.307639
 H    -4.421489    -0.700058     5.593797
 H    -6.082674    -2.607203     3.408846
 O    -5.628474    -1.749432     3.452400
 H    -4.678497    -1.986395     3.460525
 H    -2.859193    -0.496424    -2.929285
 O    -2.594078    -0.610243    -3.868796
 H    -2.455421    -1.582373    -3.901097
 H    -3.549299    -3.453496    -3.461546
 O    -2.664038    -3.091568    -3.257951
 H    -2.026779    -3.827425    -3.431990
 H     3.210712    -1.388638    -4.165205
 O     2.657182    -1.560445    -4.951033
 H     3.290719    -1.750461    -5.661872
 H     4.702538     1.973132    -6.695168
 O     4.165686     1.154976    -6.664866
 H     3.328817     1.375948    -7.082319
 H    -4.157147     1.322464     5.768995
 O    -4.629767     2.165870     5.987755
 H    -5.193059     2.354652     5.209955
 H    -3.939815     0.071503     2.046945
 O    -3.396133     0.417238     2.775589
 H    -3.303828     1.382638     2.643964
 H    -5.786386     0.549010    -2.230452
 O    -6.337496    -0.134377    -2.663636
 H    -5.913510    -0.284936    -3.531304
 H     1.883762    -4.034948    -3.910739
 O     1.827687    -4.591408    -4.717468
 H     1.481116    -5.440163    -4.370599
 H     4.443339    -3.612583    -0.437621
 O     4.732182    -2.836728     0.090526
 H     3.976080    -2.203980     0.057833
 H    -0.203672     3.004127    -1.006905
 O    -0.956483     2.609879    -1.478475
 H    -1.663985     3.281104    -1.383580
 H     1.823600     4.476908     1.380094
 O     2.281804     4.648184     2.223224
 H     2.082485     3.889145     2.793285
 H     3.728524     1.244850     1.617572
 O     2.952752     0.681585     1.806011
 H     2.185809     1.279086     1.904913
 H     3.105668    -4.064799    -1.854786
 O     3.798355    -4.683903    -1.515601
 H     4.480337    -4.723925    -2.204311
 H     4.931643    -4.024067    -4.305327
 O     5.367013    -3.678402    -3.489822
 H     4.976910    -2.802198    -3.290465
 H    -1.009248     5.192845     1.906857
 O    -1.182547     5.708935     1.085276
 H    -1.824284     5.191767     0.533105
 H    -5.642428     3.285515     0.369731
 O    -5.185446     3.748771    -0.357965
 H    -5.629085     4.599587    -0.553956
 H     4.993849    -3.736506     3.135701
 O     4.242374    -3.579522     2.557787
 H     4.576620    -3.336746     1.665290
 H     5.839776    -1.261366     1.430895
 O     5.450055    -0.366589     1.377355
 H     6.239744     0.208556     1.395969
 H     1.565731    -6.897006    -2.675027
 O     1.393218    -7.189300    -3.602861
 H     2.299226    -7.264822    -3.960061
 H    -7.232374    -3.474083     1.002406
 O    -8.200284    -3.469626     0.803334
 H    -8.656357    -3.231485     1.639543
 H     3.222715    -2.297504     2.944713
 O     2.544379    -1.613809     3.100276
 H     2.774264    -0.834881     2.561922
 H    -1.869436     2.971720     5.004853
 O    -2.579333     3.629544     5.123089
 H    -3.324919     3.152711     5.534607
 H    -0.786858     1.129468     3.983432
 O    -0.658091     1.717827     4.760990
 H     0.185120     2.156352     4.604224
 H     0.298266     3.132290    -7.047521
 O     1.252179     2.935873    -6.916684
 H     1.264692     2.110236    -6.396907
 H     7.137423    -2.670465     4.859475
 O     6.377149    -3.134455     4.434096
 H     5.575740    -2.751502     4.864203
 H     8.021457     1.495713     1.346559
 O     7.928536     0.582875     1.679127
 H     8.408472    -0.006560     1.068243
 H    -4.091460    -0.644691    -4.588171
 O    -5.021123    -0.691567    -4.914976
 H    -5.007967    -0.370974    -5.834278
 H     6.434696    -1.550536    -2.079793
 O     6.841337    -1.985458    -1.325326
 H     6.110003    -2.220180    -0.723213
 H     4.713816    -0.634825     4.495380
 O     5.133057     0.080920     3.988905
 H     5.075733    -0.129128     3.032716
 H     0.032829     3.471747     2.759807
 O    -0.587983     4.149937     3.093616
 H    -0.273874     4.448824     3.968822
 H     8.237063    -1.300847    -0.643390
 O     9.029404    -0.912772    -0.210843
 H     9.721856    -1.586184    -0.257174
 H     9.585306    -3.759237     2.334305
 O     9.289200    -3.613392     1.409459
 H     10.055382    -3.482324     0.840300
 H    -2.408052    -2.356661     4.009522
 O    -3.033404    -2.473918     3.284465
 H    -2.576859    -2.188544     2.453301
 H    -2.160493     0.540972    -6.279365
 O    -2.795758     1.287599    -6.345402
 H    -3.034815     1.511343    -5.422470
 H    -1.196559     3.614762    -5.646182
 O    -1.321197     3.534872    -6.619915
 H    -1.920150     2.773297    -6.725892
 H    -4.660767    -6.205651    -0.805935
 O    -5.122850    -5.434975    -0.445976
 H    -5.890921    -5.279830    -1.038574
 H     2.624942    -5.845894    -1.192700
 O     1.813911    -6.383745    -1.087571
 H     1.057123    -5.740937    -0.994610
 H     3.289675    -4.501201    -5.441347
 O     4.249577    -4.522198    -5.715264
 H     4.372839    -3.795672    -6.342016
 H     7.531528     3.519861     1.902628
 O     7.443092     3.119514     1.028402
 H     6.509157     2.796829     0.994073
 H     6.607678    -3.862222     0.539384
 O     7.086406    -4.687678     0.354883
 H     7.976606    -4.517214     0.721471
 H    -7.531804    -4.428870    -2.203597
 O    -7.311667    -5.349540    -1.933569
 H    -7.936270    -5.578074    -1.219326
 H    -4.295348     7.086945     4.634507
 O    -3.412416     6.732114     4.417427
 H    -2.929996     6.560917     5.240586
 H     7.325951     3.747265     4.663754
 O     7.318300     3.303440     3.805563
 H     7.562935     2.376081     3.987092
 H    -5.763953     1.319309     6.932048
 O    -6.537889     0.799640     7.250876
 H    -6.272014    -0.130457     7.159889
 H    -0.629942    -4.976684    -2.589998
 O    -0.857207    -4.926571    -3.539216
 H    -1.449329    -5.676978    -3.741358
 H     6.736661     0.426262     4.332177
 O     7.708457     0.605419     4.277551
 H     7.918900     0.514667     3.321387
 H     4.748811    -6.815886    -3.528478
 O     4.052454    -7.015782    -4.192080
 H     4.186718    -6.381878    -4.904510
 H    -5.925621    -2.081426    -5.112908
 O    -6.589975    -2.806777    -5.142820
 H    -7.420487    -2.373623    -5.461248
 H    -7.633530     1.046117     6.027026
 O    -8.193529     1.346803     5.267295
 H    -8.798771     1.998148     5.625613
 H    -5.159285     5.935363     2.048137
 O    -5.388045     6.835994     1.740285
 H    -4.526502     7.300527     1.697017
 H     5.794389     1.394518    -4.058284
 O     6.022312     0.582800    -4.562439
 H     5.529281     0.641754    -5.383422
 H    -5.796339     6.560544     0.100086
 O    -5.827208     6.288611    -0.840891
 H    -4.936168     6.499943    -1.191434
 H    -0.322597    -7.548463    -2.740704
 O    -1.027402    -7.636770    -2.089460
 H    -0.637126    -7.942568    -1.261757
 H    -2.519756    -1.267202     5.630176
 O    -1.872858    -1.991672     5.806164
 H    -1.035068    -1.522528     5.979528
 H     7.487246    -4.594188    -1.310072
 O     7.600412    -4.635472    -2.284151
 H     6.833526    -4.162368    -2.650130
 H    -8.850183    -2.967011    -3.083364
 O    -7.929496    -2.879156    -2.748280
 H    -7.380649    -2.743403    -3.539603
 H     8.798615    -3.481682    -2.729950
 O     9.435919    -2.774234    -2.962389
 H     8.943851    -1.935329    -2.906164
 H    -5.138056    -5.042881    -3.292562
 O    -5.094072    -4.076956    -3.201913
 H    -5.577561    -3.713225    -3.956032
 H    -3.615386     3.906360    -3.681854
 O    -3.318381     4.775787    -3.366481
 H    -3.601639     5.444169    -3.991503
 H    -0.207216     4.582221    -4.245074
 O    -0.867568     3.906566    -4.009330
 H    -1.647533     4.376885    -3.651699
 H    -1.960553    -3.761576     5.589312
 O    -2.261596    -4.635484     5.294709
 H    -3.194362    -4.494699     5.054680
 H    -2.332402     8.250728    -4.124834
 O    -2.544386     7.296682    -4.181617
 H    -2.351497     7.011683    -5.102091
 H    -2.902658     7.527213     2.909071
 O    -2.830459     7.674816     1.951149
 H    -2.240039     6.962167     1.632150
 H     4.841959     1.753691     4.126067
 O     4.694540     2.700102     3.910756
 H     5.571053     3.041057     3.650560
 H     7.888450    -1.488849     6.340041
 O     8.325257    -1.733933     5.500922
 H     8.288803    -0.910723     4.974686
 H     6.039145    -1.146327     7.844930
 O     6.747218    -0.650969     7.421450
 H     6.294147     0.083108     6.949436
 H    -1.700000     5.372759    -6.702891
 O    -1.824772     6.323187    -6.556473
 H    -0.950780     6.734677    -6.678827
 H    -8.176056     0.114586     4.008526
 O    -7.998642    -0.462425     3.252430
 H    -7.097105    -0.812142     3.368475
 H    -8.509126     0.256619     0.243229
 O    -8.531050     0.932548     0.941117
 H    -8.506987     0.429011     1.772554
 H     0.854033    -0.222751     5.957070
 O     0.021934    -0.262953     6.483894
 H    -0.475340     0.498142     6.137000
 H    -0.401084     6.958990    -1.978304
 O    -0.363846     6.528001    -2.855610
 H    -1.218233     6.711266    -3.307783
 H     0.520745    -7.958267     1.019257
 O    -0.387661    -8.209282     0.792257
 H    -0.838497    -8.222954     1.664965
 H     2.060466     2.943417     5.126713
 O     2.064866     2.613818     4.203028
 H     3.005015     2.616571     3.946484
 H    -8.028127    -5.668985    -5.185987
 O    -7.133818    -5.543132    -5.543163
 H    -6.978737    -4.587667    -5.513839
 H     2.986358    -7.510706     1.469451
 O     2.102796    -7.139759     1.405379
 H     2.021135    -6.852423     0.460787
 H     3.359290     5.305500    -7.673227
 O     3.503516     4.337665    -7.744278
 H     2.670112     3.907703    -7.496444
 H    -0.447084     7.033788     0.190531
 O    -0.135907     7.705285    -0.439624
 H    -0.805201     8.404279    -0.422426
 H     4.490497     3.903679     5.050436
 O     4.412832     4.589339     5.756958
 H     5.296144     4.662681     6.127988
 H     7.695442     3.104825     6.667557
 O     7.175029     3.943346     6.549760
 H     7.669546     4.623788     7.005216
 H     3.983707    -8.053414    -0.595532
 O     4.508615    -7.491242    -0.002861
 H     4.956077    -6.880259    -0.610340
 H     6.656935    -6.107557    -2.361888
 O     5.883211    -6.697095    -2.283482
 H     6.214150    -7.605862    -2.165553
 H    -9.002623    -1.847323     3.163770
 O    -9.495587    -2.672692     2.971676
 H    -10.230779    -2.390524     2.401107
 H    -2.589643     8.842886     0.595121
 O    -2.447309     9.151856    -0.315056
 H    -3.239250     9.710887    -0.512315
 H     8.128507     0.981839     7.322791
 O     8.475040     1.645042     6.716023
 H     8.320566     1.273754     5.830206
 H    -2.294872     5.554659     7.431722
 O    -2.013789     5.723849     6.533630
 H    -2.215535     4.891616     6.010065
 H    -6.359959    -6.476020    -2.945608
 O    -5.694610    -6.714872    -3.617036
 H    -6.135696    -6.463550    -4.457733
 H     6.770334    -2.684050     2.837822
 O     6.892600    -2.475429     1.892678
 H     7.838629    -2.568716     1.708173
 H     2.390145     6.662399    -1.152380
 O     2.654393     7.429332    -0.596154
 H     1.814669     7.791433    -0.287285
 H    -4.276091    -7.409516    -2.453047
 O    -3.705802    -7.417667    -1.675315
 H    -2.799189    -7.571123    -1.994552
 H     0.926652     6.429349    -5.941573
 O     0.762105     7.279967    -6.411377
 H     0.787080     7.950305    -5.697726
 H    -8.297624    -1.603700    -1.519941
 O    -8.584299    -1.285222    -0.649145
 H    -8.360680    -2.046124    -0.067750
 H    -3.208960     7.058101    -2.512824
 O    -3.305121     6.929545    -1.559488
 H    -2.993651     7.753152    -1.128983
 H     2.783497    -4.434741     2.582771
 O     1.864890    -4.767818     2.608201
 H     1.911492    -5.678442     2.251979
 H    -8.855555    -0.878588    -4.917063
 O    -8.784547    -1.495372    -5.682288
 H    -8.485266    -0.941727    -6.424014
 H     7.525619    -0.290153    -3.889465
 O     8.173416    -0.300039    -3.165885
 H     8.852846     0.348491    -3.399080
 H     4.283519     6.650386    -0.408809
 O     4.985390     5.999009    -0.568604
 H     4.517121     5.155529    -0.756880
 H    -7.964818     0.100533    -3.154381
 O    -8.864627     0.113970    -3.541558
 H    -9.465953    -0.088101    -2.823452
 H     6.147613     3.592917    -3.459466
 O     5.667152     2.829478    -3.088873
 H     6.252166     2.436999    -2.398576
 H    -1.404657    -6.861739     0.500790
 O    -2.010062    -6.123042     0.286774
 H    -2.615187    -6.457549    -0.381856
 H    -4.035771    -7.662102     1.449489
 O    -4.253413    -7.358642     2.333809
 H    -4.031080    -6.396817     2.347125
 H    -2.912936    -4.961469     1.480798
 O    -3.620758    -4.805101     2.126427
 H    -3.329595    -4.058923     2.689245
 H     5.210838    -5.968469     5.151102
 O     4.457455    -5.746876     4.600493
 H     4.750899    -5.888207     3.684902
 H    -9.642369    -6.269563    -3.504645
 O    -9.651919    -5.859924    -4.399736
 H    -10.305249    -6.345744    -4.903355
 H     6.225505    -5.632401     1.517429
 O     5.708064    -6.185803     2.138145
 H     5.245447    -6.803825     1.560132
 H    -1.428386    -6.562670     2.961492
 O    -1.578992    -7.517986     3.061479
 H    -2.540806    -7.631157     3.067709
 H    -10.126157    -4.130824    -4.200001
 O    -10.249606    -3.192587    -3.979147
 H    -10.010668    -2.682386    -4.765044
 H     0.530818     7.795608    -3.633977
 O     0.858425     8.604850    -4.079319
 H     1.761768     8.754827    -3.731111
 H    -9.192332    -7.950667    -2.029049
 O    -9.773814    -7.190008    -2.069743
 H    -9.647248    -6.710754    -1.230941
 H     2.100783     0.896534     4.566225
 O     2.189764     0.069956     5.078146
 H     2.391740    -0.646623     4.440311
 H    -6.566541     0.079684    -7.552832
 O    -7.522252     0.188044    -7.427840
 H    -7.664916     1.105903    -7.193322
 H     6.252854     3.461522    -7.459240
 O     5.665245     3.443314    -6.703843
 H     4.822230     3.894595    -7.019304
 H    -5.234330     10.387751     0.153776
 O    -4.744987     10.358905    -0.679261
 H    -5.337312     9.849953    -1.267315
 H    -0.773629    -1.254847    -5.629402
 O    -1.025442    -0.692082    -6.400314
 H    -0.221286    -0.156745    -6.530660
 H     4.718007    -0.836950    -6.885135
 O     4.794080    -1.757224    -6.610284
 H     5.642279    -1.837735    -6.139261
 H     2.428128    -8.972476    -2.118019
 O     3.385391    -8.910889    -2.123066
 H     3.618010    -8.367842    -2.890240
 H    -4.242035    -0.816279    -7.822864
 O    -4.730023    -0.049638    -7.511011
 H    -4.045237     0.605589    -7.230096
 H     1.397224     4.097727     6.501550
 O     2.138009     3.507197     6.740939
 H     2.956069     4.015613     6.589650
 H    -11.365660    -2.493361     0.219189
 O    -10.939654    -1.833882     0.767084
 H    -10.205144    -1.477229     0.236701
 H    -7.375109     2.510667     7.540731
 O    -7.839820     3.350229     7.413412
 H    -7.952597     3.735959     8.281603
 H     6.100042    -9.138929    -0.644332
 O     6.176280    -9.307560    -1.588523
 H     5.288334    -9.544569    -1.883601
 H     6.656347     5.140417    -1.041695
 O     7.287908     4.455159    -1.283898
 H     7.475543     3.965589    -0.457190
 H    -5.378339    -2.447754     6.041443
 O    -5.382986    -1.652419     6.618411
 H    -4.756652    -1.873890     7.329124
 H     2.645572     1.884499     7.420545
 O     3.104684     1.033485     7.378769
 H     2.777632     0.605515     6.559678
 H    -2.713072    -2.406752     7.245081
 O    -3.199421    -2.489835     8.093622
 H    -2.573587    -2.131889     8.739893
 H     5.816322     2.363476     6.578556
 O     5.519444     1.479181     6.356294
 H     4.633784     1.359322     6.758989
 H     1.949905    -4.117835     4.394655
 O     2.436457    -4.014883     5.225098
 H     3.127679    -4.698595     5.177429
 H     10.399610    -2.895257    -1.626799
 O     10.897111    -2.862321    -0.765262
 H     11.826219    -2.855149    -0.989007
 H     3.956833     8.099972    -3.288447
 O     3.284977     8.701522    -2.944574
 H     3.109193     8.401549    -2.034070
 H    -8.223566    -6.323132     0.795355
 O    -8.867513    -5.927769     0.185932
 H    -8.802867    -4.965279     0.401715
 H    -0.643293     9.518323    -3.730891
 O    -1.579057     9.705472    -3.526133
 H    -1.641350     9.876257    -2.583854
 H     4.152180     3.787313    -3.936917
 O     3.608303     4.578046    -4.000400
 H     4.178311     5.357353    -3.834490
 H     5.233420     6.450262    -2.277701
 O     5.163500     6.608039    -3.239350
 H     5.940414     6.219235    -3.661274
 H    -0.318440     5.543641     5.850614
 O     0.395715     5.035577     5.440297
 H     1.092492     5.654997     5.115096
 H     3.267810     5.836369     4.884347
 O     2.507981     6.262638     4.460766
 H     2.449693     5.883285     3.569550
 H    -7.090966     9.060385    -0.592628
 O    -6.804743     8.785444    -1.473573
 H    -6.582390     7.841028    -1.394614
 H    -1.345421    -4.784469     3.903965
 O    -0.898289    -4.748976     3.027342
 H     0.018199    -5.014972     3.138584
 H     4.231705    -1.811130     6.390743
 O     4.227465    -2.018658     5.431523
 H     3.506249    -2.666748     5.296810
 H     7.061126    -6.023403     3.542071
 O     7.443438    -5.618851     4.330808
 H     6.978483    -4.767643     4.437139
 H     8.997114    -4.669587     4.204634
 O     9.636228    -3.954363     4.026050
 H     9.379290    -3.218686     4.595488
 H     3.113138     7.479174    -8.428264
 O     3.115303     6.987857    -7.608034
 H     2.245428     7.170608    -7.176237
 H    -0.581937    -0.831007     8.225519
 O    -0.793615    -1.425477     8.958884
 H    -0.089868    -2.080329     8.967116
 H     8.404088     4.301705    -2.472612
 O     9.080105     4.278564    -3.198207
 H     9.810239     4.805850    -2.873858
 H     6.415721     4.364291    -5.380650
 O     6.745168     4.800626    -4.572622
 H     7.691122     4.638985    -4.481891
 H     10.660680     1.848997    -4.261504
 O     9.925722     1.780831    -3.653972
 H     9.554474     2.684243    -3.538250
 H     3.149480    -1.987461     8.058502
 O     3.987162    -1.485412     8.030143
 H     3.719310    -0.554163     8.057954
 H    -1.731387    -3.592432    -7.446681
 O    -2.381562    -2.849232    -7.539513
 H    -1.871358    -2.050192    -7.296517
 H     5.160741     5.450146     1.283212
 O     4.952190     4.938203     2.074892
 H     3.983532     4.979747     2.175972
 H    -3.640903    -6.817184    -4.565830
 O    -2.934312    -6.209337    -4.811259
 H    -3.399417    -5.416814    -5.184396
 H    -6.489262     6.524940     4.656081
 O    -6.046048     7.327888     4.325216
 H    -5.918300     7.189752     3.360393
 H    -7.398350     4.573113     5.987404
 O    -7.136406     4.954263     5.139946
 H    -6.900432     4.192984     4.585406
 H    -7.160260     9.717932     2.008815
 O    -6.916428     10.058422     1.123786
 H    -7.377588     10.892492     1.028350
 H    -6.019111    -6.752721     2.167185
 O    -6.628092    -6.140560     1.726036
 H    -6.090516    -5.742188     1.008346
 H    -3.786751    -4.207537     7.952563
 O    -4.030169    -5.072077     7.575454
 H    -3.243719    -5.378102     7.109085
 H     9.558728     0.731248    -0.575686
 O     9.615952     1.674721    -0.812746
 H     9.921934     1.689887    -1.725673
 H    -7.984357    -3.908020     3.579624
 O    -7.061202    -4.181110     3.594670
 H    -6.942775    -4.862284     2.902032
 H     1.066117    -1.893614     7.078010
 O     1.560948    -2.617227     7.477580
 H     1.764763    -3.232581     6.756025
 H    -3.520304    -3.492385    -6.467629
 O    -4.133404    -3.979479    -5.852180
 H    -4.898308    -4.228766    -6.381537
 H    -8.599954     8.693621     3.482944
 O    -7.803955     9.222733     3.552847
 H    -7.130387     8.643557     3.967651
 H     7.983039    -2.441266    -5.018758
 O     7.059095    -2.188433    -5.055465
 H     6.591086    -2.790898    -4.447710
 H    -4.911251    -4.505779     6.129932
 O    -4.953245    -3.967212     5.315680
 H    -5.722011    -4.237234     4.792798
 N    -0.687298    -5.047736    -6.987155
 H    -1.271078    -5.705952    -6.474088
 H     0.108361    -4.839188    -6.388331
 H    -0.323173    -5.543909    -7.794808
