604
grain_mol2 // -1574.405584886775 // -39.9853270433 // -591.605273310075 // -1022.78563862 // -0.0350707004 // -0.583376484111 // -0.009276671178
 H    -1.806169    -0.133817     2.483616
 O    -0.830790    -0.061416     2.565514
 H    -0.515173    -0.941528     2.879270
 H    -0.356144    -1.793764    -2.873791
 O    -0.428605    -1.820462    -1.907086
 H    -1.379606    -1.776967    -1.712742
 H    -2.853630     1.738177     0.882927
 O    -2.728568     1.108877     0.152926
 H    -1.957081     1.432471    -0.346481
 H    -3.854304     1.836194    -2.986739
 O    -3.356806     2.213463    -3.749636
 H    -2.459408     2.382115    -3.444127
 H    -0.114390    -0.572511    -0.799115
 O    -0.020520     0.155601    -0.154376
 H    -0.435597    -0.159003     0.659339
 H     0.996533    -1.777457    -4.802319
 O     0.067753    -2.001940    -4.627241
 H     0.018288    -2.968945    -4.671362
 H    -5.075673     2.237534    -1.237854
 O    -4.672762     1.432597    -1.617540
 H    -3.985041     1.178241    -0.957431
 H    -3.727626     3.229180     2.542882
 O    -2.978260     2.645263     2.316680
 H    -2.222062     3.018980     2.805321
 H     2.504806     0.457575    -2.928929
 O     1.929213    -0.205439    -2.495991
 H     1.012819     0.063690    -2.699563
 H    -1.187931     0.356616    -3.583749
 O    -0.404392     0.870496    -3.297196
 H    -0.678995     1.448575    -2.566514
 H     2.663330    -0.417341     0.571137
 O     2.605159    -1.162075    -0.061938
 H     2.322620    -0.785363    -0.917160
 H    -2.860919    -0.542223    -0.584760
 O    -2.978407    -1.000141    -1.427555
 H    -3.756375    -1.582768    -1.356400
 H     2.728119     1.434926    -0.780312
 O     1.887082     1.910002    -0.657600
 H     1.201448     1.229132    -0.490064
 H     0.392043     3.286285    -3.195643
 O     1.317834     3.141674    -2.959765
 H     1.341214     2.672681    -2.105857
 H     0.262180    -3.926458    -0.578367
 O     0.058013    -4.614258    -1.250565
 H    -0.700871    -5.108917    -0.865771
 H    -6.364051     1.881191     3.049316
 O    -6.430227     2.072119     4.021697
 H    -7.156664     1.509174     4.354585
 H     1.269187    -3.633190     1.276161
 O     0.826613    -2.997191     0.685135
 H     1.478058    -2.310438     0.436417
 H    -3.155960     5.150502    -0.935598
 O    -2.940386     4.357721    -0.409316
 H    -3.811411     3.950585    -0.219891
 H    -5.480433    -1.476405     1.683523
 O    -5.236185    -0.822849     0.993980
 H    -5.323569    -1.279715     0.151939
 H    -0.234238    -3.193580     3.021443
 O     0.041475    -2.374200     3.466871
 H     0.979601    -2.232604     3.259355
 H     5.165788     1.313738    -1.144460
 O     4.403091     0.750228    -0.950947
 H     4.650363     0.339085    -0.092796
 H     0.595132     2.463781     1.085203
 O     0.602822     2.118473     1.987271
 H     0.025234     1.334592     2.031303
 H     4.432484    -0.237670    -2.322051
 O     4.653962    -0.708905    -3.156815
 H     5.107790    -0.040304    -3.710900
 H     2.872971     3.444912    -0.955440
 O     3.733699     3.883387    -0.929839
 H     4.229666     3.619086    -1.728338
 H    -5.841802    -1.686316    -1.903874
 O    -5.282831    -2.365931    -1.468526
 H    -5.165968    -3.073458    -2.126043
 H    -4.767812    -4.235070     1.215572
 O    -5.482100    -3.631422     0.937765
 H    -5.263989    -3.331975     0.044889
 H     2.584023     2.343749    -3.633141
 O     3.286878     1.695143    -3.843505
 H     3.358174     1.666636    -4.803235
 H    -5.348806     3.642842     3.783642
 O    -4.803092     4.258723     3.283254
 H    -4.299661     4.808483     3.921080
 H     0.562436     1.120505    -4.709122
 O     1.058161     1.033393    -5.549181
 H     1.694733     0.304417    -5.396265
 H     0.749687     5.895158    -2.223037
 O     1.556074     5.599157    -1.767046
 H     2.127804     5.180774    -2.440865
 H    -2.670558    -3.534956    -1.812446
 O    -2.810953    -3.797167    -0.886731
 H    -3.546764    -4.424993    -0.863251
 H     1.826672     5.338413    -4.479757
 O     0.948363     5.393582    -4.894715
 H     0.965872     4.702152    -5.583570
 H     7.651750     2.227205    -0.880070
 O     6.879261     1.836233    -1.327723
 H     7.267054     1.172870    -1.934259
 H     4.349842     3.011998     0.377953
 O     4.699393     2.662131     1.222776
 H     4.595029     3.402972     1.855436
 H     1.166452    -3.064983    -2.203545
 O     2.015318    -2.868030    -2.625602
 H     2.060349    -1.889413    -2.645875
 H     0.955933     4.703497    -0.541352
 O     0.519384     4.207608     0.187958
 H    -0.184583     4.784043     0.535466
 H    -5.812604     0.778094     1.260420
 O    -6.333457     1.582480     1.457533
 H    -7.255132     1.307626     1.218274
 H    -2.191864    -2.697071     0.242399
 O    -1.739309    -2.111758     0.879785
 H    -0.816663    -2.416039     0.873315
 H    -3.689223    -0.515820     4.275329
 O    -3.675512    -0.657339     5.249559
 H    -4.403746    -1.270344     5.499715
 H    -5.964401    -3.125260     3.198401
 O    -5.557581    -2.248278     3.295369
 H    -4.595985    -2.433478     3.290148
 H    -2.873137    -0.455809    -2.996427
 O    -2.608632    -0.500789    -3.942312
 H    -2.409736    -1.459933    -4.028331
 H    -3.326865    -3.465911    -3.749967
 O    -2.484412    -3.049743    -3.502195
 H    -1.765326    -3.653304    -3.776660
 H     3.234567    -0.939529    -4.274294
 O     2.687112    -1.073415    -5.071498
 H     3.325859    -1.208763    -5.789986
 H     4.535444     2.648963    -6.588357
 O     4.041399     1.804124    -6.610029
 H     3.194306     2.005788    -7.016041
 H    -4.248566     0.748623     5.800351
 O    -4.765508     1.550216     6.070610
 H    -5.339769     1.756177     5.305369
 H    -3.972140    -0.255542     2.007920
 O    -3.447120     0.073551     2.757555
 H    -3.406646     1.048686     2.685727
 H    -5.851217     0.386050    -2.231103
 O    -6.365207    -0.296268    -2.710329
 H    -5.934419    -0.364390    -3.584361
 H     2.019340    -3.652495    -4.171356
 O     1.978920    -4.103470    -5.037131
 H     1.625306    -4.988629    -4.849154
 H     4.591716    -3.321862    -0.695182
 O     4.840911    -2.567483    -0.112863
 H     4.052423    -1.975380    -0.109942
 H    -0.406311     3.057278    -0.854285
 O    -1.138416     2.654628    -1.350702
 H    -1.880646     3.279151    -1.212884
 H     1.543723     4.487153     1.622144
 O     1.993283     4.630705     2.475062
 H     1.836883     3.827827     2.996378
 H     3.620376     1.354534     1.660923
 O     2.876715     0.740293     1.816208
 H     2.078805     1.288296     1.948919
 H     3.278458    -3.754615    -2.136631
 O     4.006931    -4.345049    -1.827366
 H     4.682724    -4.331136    -2.522170
 H     5.098061    -3.468722    -4.576609
 O     5.517822    -3.142457    -3.743209
 H     5.070900    -2.310407    -3.488546
 H    -1.322159     5.015422     2.189574
 O    -1.525612     5.571653     1.401658
 H    -2.139282     5.055360     0.817879
 H    -5.849231     2.959525     0.531374
 O    -5.420518     3.490608    -0.166640
 H    -5.909146     4.327398    -0.308628
 H     5.158493    -3.625606     2.867317
 O     4.398966    -3.488549     2.295379
 H     4.713180    -3.168781     1.418564
 H     5.861949    -1.017240     1.318943
 O     5.425493    -0.142851     1.325401
 H     6.183735     0.471037     1.377962
 H     1.862762    -6.530348    -3.134367
 O     1.689834    -6.736019    -4.078560
 H     2.569782    -6.776883    -4.483168
 H    -7.070778    -3.902175     0.741629
 O    -8.038306    -3.936211     0.541478
 H    -8.504526    -3.776382     1.390730
 H     3.309426    -2.288034     2.761129
 O     2.598621    -1.651357     2.964032
 H     2.781976    -0.830326     2.472404
 H    -2.054747     2.563179     5.142460
 O    -2.798831     3.173175     5.300689
 H    -3.516615     2.632079     5.680969
 H    -0.876721     0.848621     4.010215
 O    -0.778258     1.394026     4.822977
 H     0.039669     1.886293     4.694310
 H     0.076315     3.587195    -6.873157
 O     1.038818     3.429620    -6.755003
 H     1.092926     2.573557    -6.288972
 H     7.242036    -2.567072     4.658981
 O     6.508369    -3.047987     4.206146
 H     5.687538    -2.733350     4.655779
 H     7.892904     1.852957     1.410701
 O     7.850974     0.917965     1.687257
 H     8.359422     0.393981     1.040520
 H    -4.098187    -0.566890    -4.659324
 O    -5.025008    -0.642489    -4.993988
 H    -5.030223    -0.255840    -5.890956
 H     6.465260    -1.063516    -2.202652
 O     6.895796    -1.504940    -1.465449
 H     6.177955    -1.825708    -0.887407
 H     4.711616    -0.643756     4.416771
 O     5.091897     0.123298     3.957206
 H     5.043538    -0.028715     2.989155
 H    -0.187792     3.303422     2.934454
 O    -0.843243     3.925376     3.309446
 H    -0.543459     4.185502     4.201837
 H     8.254596    -0.795207    -0.747957
 O     9.026605    -0.395764    -0.288809
 H     9.754038    -1.025921    -0.382557
 H     9.747085    -3.353648     2.071430
 O     9.438307    -3.172141     1.158253
 H     10.190869    -2.961418     0.594219
 H    -2.307015    -2.714539     3.817215
 O    -2.927974    -2.817994     3.086450
 H    -2.488469    -2.459595     2.274344
 H    -2.234373     0.810604    -6.258953
 O    -2.894767     1.530841    -6.287281
 H    -3.153941     1.689783    -5.355817
 H    -1.439991     3.903145    -5.446894
 O    -1.562602     3.876964    -6.424336
 H    -2.118557     3.092032    -6.577575
 H    -4.354869    -6.374762    -1.232320
 O    -4.859713    -5.655142    -0.824398
 H    -5.635773    -5.506285    -1.406279
 H     2.898587    -5.610419    -1.565866
 O     2.109136    -6.184130    -1.497661
 H     1.324195    -5.585582    -1.379624
 H     3.430411    -3.978560    -5.707448
 O     4.388698    -3.920998    -5.975317
 H     4.466512    -3.172074    -6.572222
 H     7.295459     3.809808     2.090662
 O     7.227085     3.459970     1.193354
 H     6.311968     3.089704     1.137634
 H     6.781179    -3.503788     0.271207
 O     7.298401    -4.297382     0.030858
 H     8.173117    -4.072882     0.417915
 H    -7.329125    -4.669976    -2.512968
 O    -7.058983    -5.591596    -2.303990
 H    -7.665769    -5.899690    -1.604001
 H    -4.699917     6.556501     5.025804
 O    -3.799658     6.264134     4.787936
 H    -3.306795     6.068265     5.599353
 H     7.084318     3.853296     4.860998
 O     7.099001     3.463928     3.976893
 H     7.393842     2.541795     4.100277
 H    -5.850322     0.586768     6.959082
 O    -6.594504     0.007406     7.244136
 H    -6.278966    -0.899581     7.095914
 H    -0.289215    -4.787586    -2.972095
 O    -0.467010    -4.683265    -3.924512
 H    -1.023608    -5.420146    -4.207238
 H     6.674737     0.531949     4.322456
 O     7.635887     0.764592     4.280848
 H     7.848130     0.747400     3.320650
 H     5.056825    -6.310676    -3.978052
 O     4.367045    -6.502921    -4.651195
 H     4.470074    -5.822232    -5.323798
 H    -5.863512    -2.023480    -5.263244
 O    -6.445134    -2.812492    -5.384074
 H    -7.316525    -2.426451    -5.659186
 H    -7.704295     0.269637     6.036767
 O    -8.281533     0.586210     5.296557
 H    -8.920103     1.180491     5.694068
 H    -5.506296     5.522616     2.372125
 O    -5.784015     6.426853     2.120018
 H    -4.948844     6.939002     2.106884
 H     5.661143     1.967588    -3.993557
 O     5.934359     1.203542    -4.546380
 H     5.435702     1.281761    -5.362128
 H    -6.180519     6.231881     0.465934
 O    -6.198739     6.017655    -0.490230
 H    -5.321160     6.298313    -0.825774
 H     0.034904    -7.357324    -3.241333
 O    -0.659584    -7.522111    -2.592615
 H    -0.245230    -7.860287    -1.790046
 H    -2.474194    -1.734948     5.502837
 O    -1.788826    -2.432686     5.635573
 H    -0.977013    -1.930556     5.837308
 H     7.682821    -4.079884    -1.624240
 O     7.807505    -4.033605    -2.594930
 H     7.003634    -3.605054    -2.935910
 H    -8.724090    -3.228660    -3.310595
 O    -7.806825    -3.110075    -2.973007
 H    -7.272235    -2.887486    -3.750440
 H     8.930825    -2.808672    -2.964181
 O     9.531840    -2.053658    -3.145637
 H     8.992009    -1.249381    -3.043708
 H    -4.898173    -5.087488    -3.642056
 O    -4.906417    -4.125528    -3.500571
 H    -5.444095    -3.747954    -4.207522
 H    -3.869545     3.939557    -3.471854
 O    -3.617797     4.801573    -3.102219
 H    -3.937566     5.492579    -3.683550
 H    -0.501767     4.830992    -3.987308
 O    -1.126136     4.108146    -3.797790
 H    -1.928105     4.512751    -3.409855
 H    -1.782077    -4.187313     5.308526
 O    -2.035977    -5.057225     4.962417
 H    -2.974659    -4.952627     4.727494
 H    -2.822348     8.365446    -3.641939
 O    -2.983386     7.406827    -3.758676
 H    -2.776703     7.190715    -4.694703
 H    -3.336944     7.177541     3.332363
 O    -3.275097     7.387853     2.385488
 H    -2.647636     6.729231     2.023716
 H     4.710447     1.765753     4.196764
 O     4.511691     2.714659     4.042169
 H     5.367412     3.117977     3.803022
 H     7.932022    -1.438753     6.208715
 O     8.379041    -1.608841     5.356364
 H     8.297293    -0.757420     4.881976
 H     6.070265    -1.289705     7.730635
 O     6.750324    -0.732978     7.338637
 H     6.257782     0.004298     6.913096
 H    -2.040128     5.692337    -6.392972
 O    -2.216604     6.623635    -6.188843
 H    -1.366183     7.088751    -6.282852
 H    -8.200272    -0.563014     3.963822
 O    -7.993915    -1.081230     3.173262
 H    -7.074571    -1.388702     3.268281
 H    -8.548964    -0.206252     0.215129
 O    -8.606193     0.423380     0.952977
 H    -8.552501    -0.128257     1.751985
 H     0.839446    -0.532370     5.897459
 O     0.012348    -0.649842     6.420634
 H    -0.526465     0.102885     6.120550
 H    -0.818871     7.048910    -1.578204
 O    -0.761068     6.675845    -2.480659
 H    -1.625145     6.840857    -2.920982
 H     0.901155    -7.949869     0.480454
 O     0.005894    -8.242855     0.247092
 H    -0.433323    -8.332728     1.119948
 H     1.871189     2.739545     5.266885
 O     1.891099     2.468534     4.324652
 H     2.829078     2.537695     4.069428
 H    -7.770965    -5.747728    -5.562281
 O    -6.882980    -5.561432    -5.908923
 H    -6.771856    -4.603862    -5.844176
 H     3.279583    -7.463085     1.020313
 O     2.402894    -7.083077     0.944482
 H     2.354588    -6.741171     0.012361
 H     3.011904     5.956997    -7.360768
 O     3.207520     5.004748    -7.492793
 H     2.399983     4.515612    -7.271142
 H    -0.864325     6.986716     0.591056
 O    -0.591646     7.711669     0.003697
 H    -1.297382     8.371287     0.063997
 H     4.245411     3.832511     5.253173
 O     4.132451     4.467810     6.000906
 H     5.011420     4.565919     6.376441
 H     7.492732     3.109305     6.821127
 O     6.927135     3.923828     6.755532
 H     7.385387     4.600874     7.252121
 H     4.337076    -7.668937    -1.102968
 O     4.697285    -6.920447    -0.595313
 H     5.257484    -6.473841    -1.267422
 H     6.970875    -5.565655    -2.798811
 O     6.226709    -6.201477    -2.786336
 H     6.615932    -7.113234    -2.747865
 H    -8.921589    -2.510466     2.997991
 O    -9.369987    -3.347460     2.753925
 H    -10.120947    -3.070089     2.202003
 H    -3.100463     8.648986     1.105037
 O    -2.977253     9.020957     0.215850
 H    -3.798537     9.547731     0.052949
 H     8.040888     0.976516     7.343592
 O     8.350454     1.693236     6.779226
 H     8.213563     1.369809     5.871929
 H    -2.613593     4.963899     7.724542
 O    -2.344223     5.203478     6.838965
 H    -2.501681     4.395505     6.264564
 H    -6.052090    -6.602174    -3.378225
 O    -5.377829    -6.761072    -4.063683
 H    -5.832933    -6.486715    -4.888925
 H     6.875745    -2.467583     2.641310
 O     6.982404    -2.197350     1.710875
 H     7.930640    -2.225743     1.518023
 H     1.985971     6.853026    -0.768889
 O     2.209269     7.597605    -0.166246
 H     1.351872     7.893562     0.163709
 H    -3.907327    -7.452473    -2.947552
 O    -3.342718    -7.479575    -2.166600
 H    -2.428568    -7.556840    -2.494870
 H     0.526581     6.838825    -5.564908
 O     0.314406     7.706614    -5.981171
 H     0.305363     8.331911    -5.227272
 H    -8.241563    -1.937698    -1.660244
 O    -8.543078    -1.691438    -0.771907
 H    -8.277070    -2.473982    -0.238371
 H    -3.629418     7.030210    -2.108191
 O    -3.716682     6.837342    -1.164941
 H    -3.448934     7.648018    -0.683370
 H     2.984637    -4.419248     2.266905
 O     2.084869    -4.799248     2.278454
 H     2.172077    -5.681419     1.861002
 H    -8.839534    -1.047741    -5.010526
 O    -8.727876    -1.612540    -5.810587
 H    -8.470713    -0.994129    -6.517102
 H     7.484078     0.363176    -3.926074
 O     8.130999     0.353182    -3.201671
 H     8.773209     1.049699    -3.398360
 H     3.878573     6.897067    -0.025531
 O     4.614215     6.295780    -0.224549
 H     4.191896     5.441395    -0.465530
 H    -8.004851    -0.121155    -3.186342
 O    -8.903213    -0.140498    -3.576472
 H    -9.493159    -0.409321    -2.870884
 H     5.898350     4.140650    -3.256499
 O     5.458887     3.332027    -2.934585
 H     6.066570     2.926374    -2.271635
 H    -1.070022    -6.932246     0.035173
 O    -1.718757    -6.216488    -0.127485
 H    -2.299110    -6.539731    -0.823426
 H    -3.649838    -7.931845     0.932149
 O    -3.886264    -7.694803     1.831970
 H    -3.714008    -6.725606     1.904755
 H    -2.677489    -5.183621     1.131255
 O    -3.391617    -5.102216     1.784395
 H    -3.137334    -4.378899     2.392535
 H     5.417535    -6.065214     4.686794
 O     4.657424    -5.839923     4.138415
 H     5.014026    -5.890078     3.228824
 H    -9.338373    -6.538752    -3.930472
 O    -9.375748    -6.071838    -4.796773
 H    -9.995807    -6.565437    -5.333904
 H     6.506520    -5.448724     1.128260
 O     6.027582    -6.153409     1.622008
 H     5.479403    -6.560498     0.910943
 H    -1.106132    -6.787797     2.510946
 O    -1.205174    -7.753212     2.563864
 H    -2.159211    -7.918672     2.552853
 H    -9.939654    -4.391873    -4.489955
 O    -10.108281    -3.475087    -4.214309
 H    -9.901457    -2.908648    -4.970088
 H     0.062685     8.035932    -3.177554
 O     0.345035     8.887610    -3.571806
 H     1.239855     9.064244    -3.213945
 H    -8.793435    -8.281021    -2.565631
 O    -9.414808    -7.551406    -2.558548
 H    -9.312241    -7.120543    -1.690708
 H     2.020535     0.736225     4.580524
 O     2.155877    -0.114413     5.040270
 H     2.394260    -0.777688     4.358683
 H    -6.621947     0.210298    -7.570980
 O    -7.583509     0.253720    -7.440968
 H    -7.776605     1.145586    -7.149355
 H     6.002154     4.261169    -7.257950
 O     5.417742     4.166474    -6.505809
 H     4.551446     4.589991    -6.793819
 H    -5.825632     10.073385     0.757480
 O    -5.337432     10.122731    -0.075270
 H    -5.902757     9.619961    -0.694357
 H    -0.806690    -1.066051    -5.759341
 O    -1.001041    -0.411299    -6.465045
 H    -0.241849     0.200356    -6.409434
 H     4.705471    -0.137275    -6.950875
 O     4.829246    -1.068293    -6.737399
 H     5.679849    -1.136730    -6.268639
 H     2.863862    -8.664903    -2.698705
 O     3.817029    -8.559134    -2.665943
 H     4.042070    -7.970333    -3.400683
 H    -4.270093    -0.519443    -7.868669
 O    -4.811226     0.208523    -7.526644
 H    -4.159753     0.875868    -7.211589
 H     1.149661     3.768553     6.710002
 O     1.921801     3.205410     6.913672
 H     2.710802     3.765666     6.794545
 H    -11.252963    -3.099557     0.016841
 O    -10.862808    -2.452136     0.604378
 H    -10.149234    -2.024679     0.098534
 H    -7.521991     1.649399     7.638698
 O    -8.031598     2.468961     7.563295
 H    -8.163000     2.793366     8.453665
 H     7.060729    -8.830347    -1.518093
 O     6.832176    -8.796771    -2.485408
 H     5.926064    -9.130782    -2.547853
 H     6.327656     5.559800    -0.747692
 O     6.995423     4.926921    -1.031559
 H     7.210606     4.396518    -0.237443
 H    -5.264114    -3.091251     5.837145
 O    -5.310565    -2.334454     6.462335
 H    -4.671521    -2.565452     7.158534
 H     2.517807     1.573410     7.491257
 O     3.021945     0.752556     7.397166
 H     2.716508     0.359614     6.552491
 H    -2.602435    -2.981016     7.044096
 O    -3.081597    -3.142402     7.885497
 H    -2.474516    -2.791882     8.553283
 H     5.655955     2.274123     6.683653
 O     5.407434     1.389874     6.408188
 H     4.529742     1.198365     6.800530
 H     2.141070    -4.258469     4.095630
 O     2.628839    -4.187836     4.929926
 H     3.350188    -4.831503     4.829984
 H     10.495455    -2.209958    -1.824142
 O     10.995366    -2.205761    -0.961451
 H     11.921157    -2.131901    -1.186842
 H     3.467920     8.502673    -2.810183
 O     2.764985     9.044463    -2.430800
 H     2.607883     8.679765    -1.540697
 H    -7.906949    -6.782295     0.356789
 O    -8.573092    -6.384677    -0.227122
 H    -8.560115    -5.435741     0.049267
 H    -1.202946     9.695454    -3.168877
 O    -2.147070     9.818438    -2.954044
 H    -2.216393     9.927301    -2.003097
 H     3.893617     4.255395    -3.723891
 O     3.307823     5.018227    -3.740263
 H     3.835545     5.815093    -3.525117
 H     4.833908     6.864537    -1.902570
 O     4.753052     7.078151    -2.852506
 H     5.548540     6.758278    -3.297266
 H    -0.642833     5.157667     6.148045
 O     0.096816     4.715202     5.708039
 H     0.758416     5.390234     5.422426
 H     2.920027     5.702945     5.205729
 O     2.137358     6.113061     4.808617
 H     2.097608     5.786999     3.895533
 H    -7.609556     8.696763    -0.071852
 O    -7.311257     8.492471    -0.967897
 H    -7.037881     7.558439    -0.947043
 H    -1.114557    -5.070696     3.564306
 O    -0.673954    -4.951101     2.692357
 H     0.254936    -5.179477     2.782420
 H     4.298483    -1.960609     6.235490
 O     4.305435    -2.110237     5.265513
 H     3.618458    -2.784747     5.088755
 H     7.373818    -5.861607     3.199971
 O     7.747921    -5.462025     3.999728
 H     7.206804    -4.652100     4.120157
 H     9.206014    -4.413258     3.879165
 O     9.806681    -3.656526     3.754258
 H     9.508123    -2.972370     4.366381
 H     2.648029     8.158128    -7.978831
 O     2.677359     7.616461    -7.191520
 H     1.800110     7.725520    -6.750068
 H    -0.556959    -1.356453     8.122408
 O    -0.734117    -2.005262     8.817910
 H     0.003371    -2.621022     8.785804
 H     8.114966     4.907120    -2.226974
 O     8.789216     4.966591    -2.952081
 H     9.491142     5.510175    -2.594133
 H     6.120295     5.041886    -5.126850
 O     6.427086     5.446280    -4.293756
 H     7.380372     5.329360    -4.210988
 H     10.495833     2.695378    -4.163636
 O     9.768813     2.550913    -3.559957
 H     9.348611     3.423574    -3.389956
 H     3.230953    -2.296980     7.888149
 O     4.040580    -1.750144     7.891770
 H     3.723204    -0.838044     7.976755
 H    -2.387910    -1.979979    -8.766203
 O    -2.809962    -1.670731    -7.965635
 H    -2.124617    -1.189587    -7.453301
 H     4.823015     5.643316     1.589562
 O     4.643898     5.073807     2.348483
 H     3.674571     5.056111     2.450074
 H    -3.517109    -6.397734    -4.835491
 O    -2.733736    -5.848720    -4.913379
 H    -2.998158    -5.079880    -5.442893
 H    -6.860363     5.876577     5.009898
 O    -6.462019     6.721328     4.729927
 H    -6.329019     6.650298     3.758593
 H    -7.659796     3.799921     6.216452
 O    -7.420980     4.246422     5.394447
 H    -7.145226     3.534802     4.794174
 H    -7.708576     9.186688     2.565024
 O    -7.485562     9.594083     1.703051
 H    -7.990907     10.406589     1.659367
 H    -5.680314    -7.176425     1.700671
 O    -6.322561    -6.571104     1.298417
 H    -5.807651    -6.101820     0.607334
 H    -3.575656    -4.877572     7.637120
 O    -3.772998    -5.729209     7.207511
 H    -2.972877    -5.962319     6.722496
 H     9.464330     1.292396    -0.554181
 O     9.471398     2.250781    -0.731423
 H     9.772820     2.338822    -1.641767
 H    -7.792976    -4.535705     3.285923
 O    -6.856293    -4.758196     3.284899
 H    -6.702154    -5.388171     2.551822
 H     1.143374    -2.256391     6.912980
 O     1.678680    -2.975312     7.266389
 H     1.911951    -3.533351     6.508432
 H    -3.364904    -2.953836    -6.808776
 O    -3.748553    -3.601996    -6.199912
 H    -4.702255    -3.512631    -6.278748
 H    -9.087549     7.996833     3.971473
 O    -8.321049     8.562782     4.074603
 H    -7.616284     7.996240     4.453532
 H     8.050370    -1.685899    -5.189731
 O     7.116765    -1.469470    -5.204079
 H     6.678408    -2.137674    -4.642728
 H    -4.686697    -5.122601     5.798211
 O    -4.760344    -4.536691     5.019727
 H    -5.513462    -4.815947     4.479267
 N     7.687444    -8.687846     0.215427
 H     7.534877    -9.507758     0.795427
 H     7.282804    -7.892566     0.708633
 H     8.691794    -8.539436     0.178800
