604
grain_mol24 // -1645.761097529699 // -45.0606333289 // -668.032848248599 // -1022.78888261 // -0.0451924891 // -0.583221531909 // -0.01240924981
 H    -1.779012     0.014415     2.493655
 O    -0.801500     0.048079     2.573256
 H    -0.521932    -0.834937     2.911697
 H    -0.396440    -1.842379    -2.816840
 O    -0.471283    -1.844728    -1.849821
 H    -1.419354    -1.752546    -1.658444
 H    -2.748059     1.885040     0.843313
 O    -2.649055     1.232550     0.129683
 H    -1.864492     1.511578    -0.376526
 H    -3.742795     1.924167    -3.028421
 O    -3.229984     2.259609    -3.800511
 H    -2.326700     2.400683    -3.498269
 H    -0.105469    -0.579755    -0.773846
 O     0.016364     0.161387    -0.149351
 H    -0.409430    -0.114020     0.672996
 H     0.954960    -1.930797    -4.743604
 O     0.017796    -2.113192    -4.563247
 H    -0.069135    -3.078252    -4.584768
 H    -4.947318     2.420618    -1.292777
 O    -4.578128     1.589615    -1.650225
 H    -3.900978     1.325797    -0.982840
 H    -3.559925     3.453852     2.462955
 O    -2.835618     2.833323     2.252953
 H    -2.064423     3.188502     2.732204
 H     2.554421     0.285732    -2.926629
 O     1.951288    -0.341673    -2.478178
 H     1.047272    -0.039246    -2.689497
 H    -1.139912     0.321795    -3.583705
 O    -0.335842     0.809154    -3.308992
 H    -0.586045     1.417518    -2.594243
 H     2.675904    -0.503695     0.595562
 O     2.583396    -1.261180    -0.018233
 H     2.320287    -0.894169    -0.883730
 H    -2.848824    -0.428354    -0.565255
 O    -2.984089    -0.906519    -1.394208
 H    -3.787464    -1.451237    -1.309219
 H     2.817675     1.309364    -0.803500
 O     1.996350     1.821418    -0.695831
 H     1.283575     1.174100    -0.510668
 H     0.559492     3.192216    -3.269633
 O     1.478443     3.015134    -3.029514
 H     1.482957     2.568430    -2.163407
 H     0.134135    -3.939027    -0.466297
 O    -0.102346    -4.636805    -1.119061
 H    -0.880856    -5.084824    -0.721284
 H    -6.249942     2.229664     3.000929
 O    -6.308405     2.447866     3.967904
 H    -7.057687     1.924482     4.314354
 H     1.151343    -3.639235     1.380939
 O     0.733712    -3.003868     0.770734
 H     1.412042    -2.348435     0.507431
 H    -2.908767     5.259245    -1.063476
 O    -2.726450     4.471772    -0.516984
 H    -3.613582     4.106221    -0.318191
 H    -5.505304    -1.195689     1.724381
 O    -5.233971    -0.571764     1.017766
 H    -5.340950    -1.045921     0.187797
 H    -0.332888    -3.092614     3.110462
 O    -0.026363    -2.274469     3.535615
 H     0.917966    -2.175498     3.329339
 H     5.247464     1.077576    -1.161778
 O     4.462175     0.551029    -0.954654
 H     4.693254     0.152382    -0.085708
 H     0.727962     2.473852     1.030851
 O     0.720509     2.152492     1.941713
 H     0.111843     1.394109     2.005344
 H     4.451975    -0.472444    -2.299295
 O     4.652311    -0.973364    -3.122166
 H     5.134481    -0.338929    -3.692309
 H     3.044823     3.305983    -1.031651
 O     3.922429     3.709976    -1.016722
 H     4.407970     3.404078    -1.806773
 H    -5.873747    -1.483940    -1.856506
 O    -5.343790    -2.175513    -1.403308
 H    -5.256483    -2.903013    -2.043216
 H    -4.906226    -3.992946     1.328510
 O    -5.595508    -3.369282     1.033867
 H    -5.365477    -3.099943     0.134377
 H     2.711369     2.148614    -3.679881
 O     3.386042     1.465631    -3.872469
 H     3.457504     1.410167    -4.831006
 H    -5.162799     3.966617     3.690701
 O    -4.592198     4.545861     3.174648
 H    -4.066625     5.091276     3.798337
 H     0.641405     0.982629    -4.726153
 O     1.132026     0.852405    -5.563511
 H     1.739097     0.102857    -5.390510
 H     1.024687     5.808137    -2.365409
 O     1.817811     5.491001    -1.900574
 H     2.372497     5.032286    -2.562343
 H    -2.781391    -3.458418    -1.712407
 O    -2.926208    -3.700757    -0.781489
 H    -3.694568    -4.287328    -0.743363
 H     2.078117     5.149051    -4.604988
 O     1.202773     5.229356    -5.022274
 H     1.192250     4.520313    -5.693087
 H     7.769027     1.894277    -0.918421
 O     6.981130     1.524679    -1.357544
 H     7.341804     0.829460    -1.944884
 H     4.502269     2.848217     0.314798
 O     4.836113     2.505692     1.168751
 H     4.763284     3.266015     1.782337
 H     1.071763    -3.155063    -2.111617
 O     1.930158    -3.008021    -2.533925
 H     2.016420    -2.033054    -2.582650
 H     1.181097     4.653077    -0.653007
 O     0.723449     4.194405     0.087692
 H     0.044753     4.808791     0.419970
 H    -5.743957     1.058647     1.241806
 O    -6.231400     1.888388     1.417283
 H    -7.163533     1.645959     1.184116
 H    -2.268446    -2.588844     0.318297
 O    -1.793320    -2.007125     0.941934
 H    -0.883030    -2.346958     0.944115
 H    -3.676690    -0.242296     4.292202
 O    -3.668968    -0.359619     5.269623
 H    -4.422002    -0.934972     5.534942
 H    -6.057004    -2.783711     3.281231
 O    -5.613989    -1.922185     3.354284
 H    -4.660875    -2.146850     3.356588
 H    -2.857211    -0.405693    -2.977207
 O    -2.595535    -0.486371    -3.921406
 H    -2.435023    -1.454244    -3.982604
 H    -3.435145    -3.412684    -3.653820
 O    -2.576961    -3.026329    -3.412500
 H    -1.882221    -3.662977    -3.674054
 H     3.225985    -1.173729    -4.234838
 O     2.673063    -1.305466    -5.028750
 H     3.305818    -1.486262    -5.742643
 H     4.674379     2.295960    -6.639495
 O     4.145305     1.472271    -6.639863
 H     3.307558     1.698548    -7.052183
 H    -4.183312     1.083058     5.783368
 O    -4.667430     1.911522     6.032035
 H    -5.232078     2.121293     5.260747
 H    -3.947999    -0.029482     2.018082
 O    -3.410205     0.296143     2.759926
 H    -3.328742     1.266762     2.663299
 H    -5.798200     0.577352    -2.237933
 O    -6.339149    -0.096479    -2.699477
 H    -5.911965    -0.203892    -3.571401
 H     1.902334    -3.828102    -4.064988
 O     1.837957    -4.295233    -4.920170
 H     1.461610    -5.166711    -4.706627
 H     4.484884    -3.516147    -0.589809
 O     4.761716    -2.755760    -0.031092
 H     3.997635    -2.133336    -0.043809
 H    -0.247996     3.056884    -0.924684
 O    -0.996345     2.671705    -1.410914
 H    -1.711750     3.330238    -1.290571
 H     1.759079     4.468851     1.516340
 O     2.213160     4.616720     2.365942
 H     2.024802     3.834640     2.908004
 H     3.705337     1.255069     1.639380
 O     2.935852     0.677080     1.807995
 H     2.162197     1.261406     1.927125
 H     3.156024    -3.935350    -2.018883
 O     3.856960    -4.553692    -1.699068
 H     4.534241    -4.573291    -2.392855
 H     4.982264    -3.784825    -4.468534
 O     5.413327    -3.456558    -3.641489
 H     5.004367    -2.598436    -3.410625
 H    -1.082550     5.129824     2.066440
 O    -1.263114     5.673364     1.264094
 H    -1.897158     5.167682     0.693208
 H    -5.690509     3.220424     0.456238
 O    -5.240630     3.714053    -0.255662
 H    -5.693435     4.567013    -0.419455
 H     5.032167    -3.763815     2.975995
 O     4.277853    -3.588798     2.407097
 H     4.609082    -3.315451     1.521735
 H     5.847038    -1.214802     1.363944
 O     5.446370    -0.323144     1.344273
 H     6.229651     0.259626     1.382780
 H     1.650493    -6.656884    -3.058789
 O     1.422519    -6.839757    -3.999483
 H     2.295925    -7.005681    -4.399028
 H    -7.194599    -3.577754     0.843880
 O    -8.162320    -3.578024     0.643227
 H    -8.622085    -3.375806     1.487209
 H     3.242984    -2.338455     2.838262
 O     2.555662    -1.669113     3.018509
 H     2.776338    -0.869566     2.507384
 H    -1.916470     2.788159     5.080770
 O    -2.635324     3.431756     5.221776
 H    -3.374280     2.930832     5.615949
 H    -0.809601     0.997707     3.995008
 O    -0.689641     1.559754     4.793074
 H     0.148565     2.013603     4.653631
 H     0.257484     3.409696    -6.954491
 O     1.212517     3.215544    -6.831050
 H     1.231278     2.370459    -6.342762
 H     7.161860    -2.729821     4.742025
 O     6.407804    -3.187878     4.300301
 H     5.601279    -2.830743     4.741738
 H     7.995396     1.570125     1.380488
 O     7.913221     0.645676     1.681432
 H     8.400110     0.083123     1.050408
 H    -4.085749    -0.509308    -4.638487
 O    -5.014804    -0.556565    -4.972347
 H    -5.003955    -0.192662    -5.878859
 H     6.447845    -1.375597    -2.155761
 O     6.860388    -1.819303    -1.409820
 H     6.131253    -2.093440    -0.821960
 H     4.713202    -0.713548     4.447914
 O     5.122116     0.026327     3.968509
 H     5.070074    -0.150974     3.005040
 H    -0.020214     3.392988     2.856799
 O    -0.650330     4.050341     3.214551
 H    -0.339822     4.321710     4.100023
 H     8.247033    -1.147145    -0.706188
 O     9.034535    -0.764988    -0.259135
 H     9.734636    -1.428431    -0.329581
 H     9.626392    -3.694378     2.181174
 O     9.328097    -3.516304     1.263104
 H     10.092004    -3.358606     0.697583
 H    -2.387181    -2.508144     3.893708
 O    -3.010072    -2.608380     3.163757
 H    -2.556215    -2.286038     2.344521
 H    -2.165902     0.747953    -6.271191
 O    -2.796869     1.493114    -6.319021
 H    -3.048656     1.687438    -5.392281
 H    -1.244834     3.825053    -5.538755
 O    -1.368524     3.778386    -6.515318
 H    -1.956334     3.013461    -6.648845
 H    -4.582091    -6.210985    -1.063653
 O    -5.056097    -5.461970    -0.674252
 H    -5.826591    -5.294906    -1.259490
 H     2.679895    -5.762913    -1.431727
 O     1.854891    -6.289067    -1.346472
 H     1.132309    -5.605348    -1.267490
 H     3.295497    -4.253839    -5.588527
 O     4.256009    -4.242464    -5.855913
 H     4.365207    -3.513854    -6.472634
 H     7.478037     3.567164     2.010174
 O     7.394940     3.199053     1.121422
 H     6.466092     2.863964     1.074733
 H     6.648593    -3.772512     0.378689
 O     7.139160    -4.584190     0.168450
 H     8.026867    -4.415223     0.540250
 H    -7.482538    -4.419838    -2.390724
 O    -7.249704    -5.345698    -2.155535
 H    -7.870492    -5.609793    -1.449637
 H    -4.394861     6.882341     4.857068
 O    -3.507650     6.546577     4.627791
 H    -3.023167     6.352078     5.444612
 H     7.268181     3.692235     4.777597
 O     7.266290     3.280208     3.903742
 H     7.522919     2.349845     4.051190
 H    -5.791068     1.017492     6.943455
 O    -6.558702     0.476701     7.242050
 H    -6.280392    -0.445975     7.118744
 H    -0.454260    -4.833737    -2.839689
 O    -0.628768    -4.749910    -3.794365
 H    -1.217903    -5.468215    -4.058759
 H     6.721682     0.378882     4.325204
 O     7.690865     0.573633     4.278343
 H     7.903348     0.518339     3.319716
 H     4.803561    -6.626909    -3.788723
 O     4.121168    -6.788858    -4.473177
 H     4.268593    -6.121410    -5.150699
 H    -5.909154    -1.907718    -5.206852
 O    -6.522560    -2.675448    -5.307245
 H    -7.377341    -2.261061    -5.593630
 H    -7.656156     0.752941     6.027254
 O    -8.219946     1.073057     5.278142
 H    -8.833315     1.703623     5.659165
 H    -5.242515     5.813667     2.230155
 O    -5.482779     6.721576     1.954014
 H    -4.627197     7.198471     1.928797
 H     5.770615     1.636517    -4.026126
 O     6.011333     0.847591    -4.558764
 H     5.516940     0.925654    -5.377074
 H    -5.886604     6.500147     0.305316
 O    -5.913360     6.261540    -0.644894
 H    -5.025016     6.497511    -0.986608
 H    -0.248502    -7.541700    -3.278950
 O    -0.957046    -7.718177    -2.633735
 H    -0.498329    -7.819467    -1.789231
 H    -2.512696    -1.478493     5.552953
 O    -1.857307    -2.201012     5.702678
 H    -1.025285    -1.728132     5.893934
 H     7.538851    -4.425773    -1.495089
 O     7.660019    -4.420203    -2.468431
 H     6.879570    -3.958437    -2.820307
 H    -8.817185    -2.943499    -3.226544
 O    -7.895492    -2.855697    -2.891285
 H    -7.352790    -2.673050    -3.673535
 H     8.837755    -3.246358    -2.869393
 O     9.467713    -2.522064    -3.073691
 H     8.963286    -1.693327    -2.988779
 H    -5.072295    -4.965132    -3.506204
 O    -5.040679    -4.000763    -3.388744
 H    -5.562089    -3.618719    -4.105638
 H    -3.671749     4.013052    -3.569086
 O    -3.384709     4.872874    -3.220988
 H    -3.674793     5.561671    -3.820273
 H    -0.269309     4.750620    -4.102722
 O    -0.923472     4.059615    -3.895326
 H    -1.707678     4.507358    -3.518757
 H    -1.921067    -3.962961     5.422892
 O    -2.211651    -4.829090     5.096431
 H    -3.145982    -4.690923     4.861425
 H    -2.442461     8.385753    -3.852190
 O    -2.643230     7.431916    -3.944351
 H    -2.445038     7.183311    -4.874135
 H    -3.007003     7.402335     3.149687
 O    -2.936741     7.584863     2.197650
 H    -2.336467     6.891999     1.854101
 H     4.810082     1.687931     4.165018
 O     4.650485     2.639967     3.985140
 H     5.522761     3.000868     3.737677
 H     7.896887    -1.591273     6.264931
 O     8.337778    -1.800421     5.418446
 H     8.290748    -0.960197     4.920960
 H     6.042242    -1.328150     7.778946
 O     6.744094    -0.807814     7.375613
 H     6.281893    -0.063979     6.928557
 H    -1.770289     5.612203    -6.531931
 O    -1.908478     6.554907    -6.352238
 H    -1.039569     6.982108    -6.457034
 H    -8.185838    -0.112082     3.976032
 O    -8.000749    -0.659544     3.199924
 H    -7.094637    -1.001072     3.304284
 H    -8.518570     0.160655     0.219183
 O    -8.550005     0.810922     0.940357
 H    -8.519188     0.278774     1.753640
 H     0.846718    -0.404045     5.920316
 O     0.014342    -0.473969     6.444086
 H    -0.491633     0.293367     6.124826
 H    -0.495137     7.041985    -1.752645
 O    -0.453031     6.643228    -2.644953
 H    -1.309336     6.832663    -3.090443
 H     0.646925    -8.053869     0.827903
 O    -0.245883    -8.353442     0.544235
 H    -0.731045    -8.380402     1.400564
 H     2.013436     2.805485     5.205507
 O     2.022140     2.510048     4.270451
 H     2.962562     2.532894     4.015343
 H    -7.968099    -5.557826    -5.410804
 O    -7.071934    -5.418254    -5.758453
 H    -6.922319    -4.464371    -5.721323
 H     3.061562    -7.436587     1.102420
 O     2.149828    -7.110507     1.113877
 H     2.052545    -6.781486     0.171770
 H     3.288597     5.642926    -7.499732
 O     3.444564     4.680310    -7.606834
 H     2.617543     4.230936    -7.373395
 H    -0.543675     7.038343     0.417536
 O    -0.241570     7.735703    -0.188507
 H    -0.919298     8.425368    -0.146046
 H     4.430757     3.798464     5.166597
 O     4.343532     4.457531     5.897165
 H     5.225623     4.528594     6.271615
 H     7.644414     2.983122     6.757023
 O     7.113072     3.818712     6.669911
 H     7.599513     4.488560     7.149115
 H     4.192269    -7.972244    -0.957814
 O     4.661070    -7.434244    -0.277474
 H     5.098456    -6.761649    -0.832567
 H     6.729904    -5.920367    -2.600275
 O     5.960345    -6.513224    -2.534761
 H     6.293479    -7.426160    -2.456339
 H    -8.986225    -2.053103     3.060782
 O    -9.467994    -2.877301     2.837218
 H    -10.207558    -2.583593     2.278399
 H    -2.709638     8.804179     0.885178
 O    -2.571232     9.147162    -0.013376
 H    -3.369873     9.703166    -0.190902
 H     8.104827     0.843969     7.335399
 O     8.442758     1.533424     6.753534
 H     8.293874     1.192284     5.854620
 H    -2.376337     5.275893     7.599001
 O    -2.098089     5.481280     6.707597
 H    -2.287907     4.665686     6.154355
 H    -6.288117    -6.422960    -3.201714
 O    -5.619628    -6.630924    -3.879996
 H    -6.061632    -6.359173    -4.713605
 H     6.796630    -2.675511     2.720213
 O     6.916851    -2.427432     1.784759
 H     7.863180    -2.507500     1.595356
 H     2.299010     6.751792    -0.934744
 O     2.552452     7.502184    -0.351601
 H     1.707968     7.841617    -0.030429
 H    -4.182903    -7.348511    -2.741849
 O    -3.604949    -7.388360    -1.970474
 H    -2.701712    -7.493787    -2.318801
 H     0.841218     6.672954    -5.730549
 O     0.664660     7.537507    -6.169531
 H     0.681626     8.182162    -5.432237
 H    -8.282235    -1.630264    -1.610604
 O    -8.573356    -1.348934    -0.729327
 H    -8.340343    -2.127444    -0.175138
 H    -3.304135     7.125476    -2.285374
 O    -3.399802     6.960807    -1.337597
 H    -3.098787     7.771965    -0.876799
 H     2.830995    -4.466017     2.398047
 O     1.917120    -4.813608     2.411361
 H     1.980790    -5.706987     2.013735
 H    -8.842326    -0.804459    -4.983366
 O    -8.753477    -1.394240    -5.768100
 H    -8.471354    -0.805299    -6.490199
 H     7.525271    -0.038281    -3.915360
 O     8.170857    -0.057929    -3.190095
 H     8.842149     0.605593    -3.402828
 H     4.191666     6.737207    -0.190386
 O     4.901868     6.101324    -0.373345
 H     4.444972     5.258870    -0.592122
 H    -7.970684     0.134709    -3.182263
 O    -8.868781     0.140960    -3.573253
 H    -9.469947    -0.082389    -2.861327
 H     6.096907     3.816244    -3.345631
 O     5.624051     3.035152    -3.003739
 H     6.214521     2.621770    -2.329767
 H    -1.307842    -6.928743     0.243748
 O    -1.912770    -6.178083     0.054872
 H    -2.513807    -6.509616    -0.628225
 H    -3.946450    -7.736225     1.141686
 O    -4.166396    -7.469345     2.037125
 H    -3.956441    -6.505814     2.086076
 H    -2.854304    -5.025977     1.272535
 O    -3.565351    -4.902917     1.920760
 H    -3.285099    -4.173769     2.511697
 H     5.278427    -6.060565     4.910490
 O     4.521693    -5.828016     4.369059
 H     4.816394    -5.934624     3.448438
 H    -9.567765    -6.239643    -3.761580
 O    -9.584755    -5.794791    -4.639924
 H    -10.226061    -6.274681    -5.164398
 H     6.288560    -5.581706     1.297563
 O     5.778657    -6.162111     1.899033
 H     5.325073    -6.764464     1.294874
 H    -1.351373    -6.659493     2.699961
 O    -1.492264    -7.619702     2.766981
 H    -2.452614    -7.744421     2.762687
 H    -10.079679    -4.084962    -4.377681
 O    -10.209903    -3.155402    -4.125239
 H    -9.980739    -2.617186    -4.895106
 H     0.426696     7.949853    -3.375890
 O     0.743829     8.778629    -3.791795
 H     1.645230     8.927419    -3.437638
 H    -9.095608    -7.967226    -2.349438
 O    -9.685469    -7.212065    -2.363413
 H    -9.566627    -6.763025    -1.506964
 H     2.080365     0.780395     4.571740
 O     2.177911    -0.062697     5.054103
 H     2.391600    -0.753192     4.391242
 H    -6.574604     0.294810    -7.572656
 O    -7.533548     0.380687    -7.444295
 H    -7.689957     1.287282    -7.177109
 H     6.206485     3.828185    -7.348867
 O     5.618161     3.776979    -6.595555
 H     4.770445     4.228578    -6.895459
 H    -5.373802     10.330083     0.497103
 O    -4.883804     10.337498    -0.336013
 H    -5.469188     9.842607    -0.942615
 H    -0.816604    -1.172396    -5.721177
 O    -0.984476    -0.528801    -6.443713
 H    -0.200509     0.052294    -6.403206
 H     4.728905    -0.502773    -6.929408
 O     4.813765    -1.432281    -6.691780
 H     5.660820    -1.523982    -6.220518
 H     2.653935    -9.317992    -2.166501
 O     3.588083    -8.995867    -2.320287
 H     3.548024    -8.418283    -3.095283
 H    -4.254601    -0.538738    -7.848321
 O    -4.765593     0.219121    -7.525439
 H    -4.087268     0.867400    -7.227368
 H     1.334620     3.901314     6.620413
 O     2.082444     3.311993     6.839557
 H     2.894397     3.835361     6.706957
 H    -11.339959    -2.622146     0.092182
 O    -10.922482    -1.977895     0.664180
 H    -10.192653    -1.592149     0.148223
 H    -7.417356     2.165464     7.593337
 O    -7.893225     3.002709     7.495421
 H    -8.011142     3.356048     8.376635
 H     6.213657    -9.005114    -0.997611
 O     6.295550    -9.147327    -1.945394
 H     5.399557    -9.362941    -2.246016
 H     6.584073     5.281455    -0.874370
 O     7.224698     4.614105    -1.141187
 H     7.417865     4.096203    -0.333135
 H    -5.356183    -2.710082     5.918699
 O    -5.371813    -1.936084     6.523626
 H    -4.742742    -2.174404     7.226547
 H     2.610275     1.672332     7.460350
 O     3.079582     0.828947     7.388983
 H     2.759501     0.426736     6.554161
 H    -2.692490    -2.678069     7.125314
 O    -3.178748    -2.797805     7.969562
 H    -2.557732    -2.455689     8.629041
 H     5.775292     2.222118     6.639490
 O     5.489557     1.342753     6.385438
 H     4.605529     1.197025     6.782734
 H     1.995623    -4.226297     4.218553
 O     2.477904    -4.147569     5.054162
 H     3.179813    -4.818549     4.981624
 H     10.428612    -2.679719    -1.744095
 O     10.926989    -2.669584    -0.881672
 H     11.855564    -2.646627    -1.106237
 H     3.848261     8.285154    -3.016506
 O     3.167815     8.864951    -2.652555
 H     2.995918     8.530648    -1.753292
 H    -8.149043    -6.429975     0.533328
 O    -8.796731    -6.020573    -0.062841
 H    -8.745548    -5.066036     0.189370
 H    -0.769611     9.659789    -3.412185
 O    -1.707970     9.826871    -3.201800
 H    -1.772825     9.963591    -2.254141
 H     4.098691     4.001863    -3.818245
 O     3.544594     4.787347    -3.855757
 H     4.104716     5.567135    -3.660517
 H     5.145142     6.616209    -2.064862
 O     5.073249     6.808105    -3.020198
 H     5.855152     6.444363    -3.455283
 H    -0.399063     5.348095     6.020025
 O     0.321090     4.863768     5.592096
 H     1.010955     5.502743     5.290479
 H     3.183429     5.720124     5.069144
 O     2.418302     6.151636     4.660506
 H     2.365726     5.804006     3.756090
 H    -7.212638     9.007100    -0.298290
 O    -6.923233     8.767087    -1.188391
 H    -6.688457     7.823540    -1.142714
 H    -1.290748    -4.916968     3.702443
 O    -0.846978    -4.850269     2.826030
 H     0.075726    -5.099121     2.928390
 H     4.244044    -1.963577     6.300446
 O     4.242024    -2.135049     5.334422
 H     3.530867    -2.788529     5.175001
 H     7.128846    -6.034480     3.303262
 O     7.505797    -5.653862     4.106875
 H     7.029940    -4.813169     4.242611
 H     9.046747    -4.680664     4.016287
 O     9.677748    -3.951571     3.866746
 H     9.409620    -3.240140     4.461109
 H     3.016115     7.840656    -8.175010
 O     3.022419     7.318519    -7.374109
 H     2.150369     7.475235    -6.936872
 H    -0.582326    -1.111605     8.164048
 O    -0.787588    -1.735137     8.874800
 H    -0.074792    -2.380081     8.860893
 H     8.343064     4.516786    -2.333786
 O     9.018974     4.529987    -3.059695
 H     9.743201     5.052298    -2.714719
 H     6.356646     4.658385    -5.238574
 O     6.679205     5.071871    -4.416060
 H     7.626796     4.917757    -4.328264
 H     10.631452     2.158994    -4.208561
 O     9.897472     2.060393    -3.604109
 H     9.514277     2.953857    -3.456676
 H     3.163126    -2.213370     7.959668
 O     3.994175    -1.699905     7.951290
 H     3.714640    -0.773657     8.011124
 H    -2.434514    -2.097277    -8.705513
 O    -2.843184    -1.752642    -7.912472
 H    -2.138800    -1.285696    -7.412751
 H     5.083479     5.488036     1.457875
 O     4.880409     4.946567     2.231091
 H     3.911252     4.971538     2.331792
 H    -3.747823    -6.360975    -4.663131
 O    -2.941103    -5.848851    -4.752557
 H    -3.171186    -5.083361    -5.302912
 H    -6.581678     6.291730     4.855902
 O    -6.148823     7.111738     4.554540
 H    -6.018536     7.010066     3.585590
 H    -7.466219     4.281955     6.115195
 O    -7.209327     4.696477     5.281968
 H    -6.962632     3.958720     4.701006
 H    -7.292151     9.569087     2.324546
 O    -7.052521     9.944190     1.452437
 H    -7.523413     10.775734     1.387239
 H    -5.940255    -6.880265     1.891360
 O    -6.556482    -6.261254     1.470307
 H    -6.022623    -5.830131     0.769231
 H    -3.744052    -4.516356     7.766690
 O    -3.976403    -5.369457     7.357683
 H    -3.185139    -5.648731     6.882703
 H     9.541587     0.895409    -0.565268
 O     9.587467     1.847687    -0.768460
 H     9.893354     1.898376    -1.680118
 H    -7.942545    -4.113616     3.403134
 O    -7.015983    -4.375210     3.408424
 H    -6.888742    -5.029544     2.692170
 H     1.080572    -2.110993     6.980103
 O     1.582472    -2.843104     7.354463
 H     1.796678    -3.428446     6.611120
 H    -3.450032    -2.981263    -6.723731
 O    -3.860765    -3.597053    -6.098875
 H    -4.809781    -3.469028    -6.181448
 H    -8.719278     8.474117     3.760053
 O    -7.930082     9.010491     3.849032
 H    -7.249297     8.425634     4.243634
 H     8.007477    -2.140536    -5.122275
 O     7.082732    -1.889250    -5.146368
 H     6.618199    -2.523042    -4.566883
 H    -4.862453    -4.762910     5.933614
 O    -4.911628    -4.196801     5.138452
 H    -5.676926    -4.457938     4.606332
 N     1.104722    -10.124422    -1.731683
 H     0.392896    -10.002647    -2.447295
 H     0.681339    -9.821971    -0.854463
 H     1.284554    -11.120828    -1.652329
