604
grain_mol142 // -1645.760528075377 // -45.0651258132 // -668.039082988577 // -1022.7865709 // -0.0425447996 // -0.58451501446 // -0.011667922578
 H    -1.773357    -0.209927     2.515129
 O    -0.795382    -0.190790     2.595860
 H    -0.524800    -1.097791     2.873501
 H    -0.416098    -1.722750    -2.909224
 O    -0.488441    -1.789277    -1.944369
 H    -1.435435    -1.701830    -1.744803
 H    -2.725355     1.775779     0.994722
 O    -2.633291     1.170987     0.239514
 H    -1.847125     1.474978    -0.249128
 H    -3.723339     2.082105    -2.859783
 O    -3.210795     2.460886    -3.611219
 H    -2.304141     2.577936    -3.308534
 H    -0.109901    -0.602122    -0.787653
 O     0.021857     0.093879    -0.114874
 H    -0.407720    -0.231194     0.687224
 H     0.932599    -1.696497    -4.841016
 O    -0.005563    -1.882199    -4.670249
 H    -0.104037    -2.842427    -4.754832
 H    -4.921484     2.474049    -1.096734
 O    -4.561538     1.664476    -1.508350
 H    -3.886310     1.349758    -0.861668
 H    -3.519995     3.241587     2.716154
 O    -2.801550     2.630180     2.463677
 H    -2.026883     2.944207     2.965158
 H     2.555731     0.377066    -2.885542
 O     1.948819    -0.272741    -2.475658
 H     1.046675     0.050885    -2.663490
 H    -1.137486     0.494724    -3.528020
 O    -0.327689     0.951139    -3.218479
 H    -0.573891     1.517407    -2.468799
 H     2.673782    -0.645194     0.579139
 O     2.575602    -1.358960    -0.084092
 H     2.312965    -0.932830    -0.922356
 H    -2.850830    -0.439062    -0.564224
 O    -2.991756    -0.857599    -1.423781
 H    -3.799635    -1.400378    -1.373838
 H     2.832219     1.254555    -0.696580
 O     2.016802     1.766916    -0.552254
 H     1.297200     1.115840    -0.410229
 H     0.593125     3.313464    -3.031562
 O     1.511534     3.124730    -2.795464
 H     1.509452     2.613199    -1.966011
 H     0.098061    -3.979305    -0.704822
 O    -0.139444    -4.631690    -1.401873
 H    -0.925761    -5.097405    -1.035768
 H    -6.221610     2.010910     3.175955
 O    -6.276726     2.165576     4.155402
 H    -7.030635     1.627509     4.467811
 H     1.117052    -3.810008     1.158112
 O     0.707528    -3.131116     0.591198
 H     1.392060    -2.466788     0.371746
 H    -2.855608     5.269431    -0.685364
 O    -2.678916     4.447443    -0.190139
 H    -3.569311     4.077418    -0.014567
 H    -5.512444    -1.329353     1.673386
 O    -5.235728    -0.662007     1.009719
 H    -5.347820    -1.079338     0.150310
 H    -0.359377    -3.365973     2.923895
 O    -0.043121    -2.579260     3.399768
 H     0.901708    -2.478113     3.198515
 H     5.259595     1.024111    -1.073661
 O     4.469233     0.492960    -0.900554
 H     4.696625     0.035359    -0.060297
 H     0.756162     2.314299     1.214339
 O     0.746761     1.934757     2.102355
 H     0.130460     1.179659     2.117471
 H     4.446917    -0.439567    -2.311125
 O     4.644384    -0.887813    -3.164333
 H     5.128593    -0.219701    -3.693942
 H     3.079555     3.259247    -0.792095
 O     3.959737     3.656273    -0.752526
 H     4.443361     3.396727    -1.560759
 H    -5.887862    -1.375025    -1.918664
 O    -5.363773    -2.099594    -1.513214
 H    -5.284669    -2.784914    -2.199183
 H    -4.942569    -4.099705     1.092149
 O    -5.625347    -3.449853     0.840729
 H    -5.393111    -3.125839    -0.039876
 H     2.729419     2.284559    -3.516956
 O     3.393456     1.606659    -3.757250
 H     3.471248     1.624421    -4.717434
 H    -5.116561     3.687160     3.977488
 O    -4.540318     4.294059     3.500864
 H    -4.008835     4.790879     4.159005
 H     0.639407     1.207475    -4.623491
 O     1.112489     1.112468    -5.475323
 H     1.729759     0.361425    -5.349707
 H     1.076962     5.862248    -1.951971
 O     1.874967     5.515220    -1.517438
 H     2.418173     5.088147    -2.209832
 H    -2.815994    -3.385290    -1.912008
 O    -2.965954    -3.680291    -0.997789
 H    -3.735190    -4.267247    -0.996522
 H     2.084551     5.247776    -4.307780
 O     1.236567     5.318156    -4.790627
 H     1.310156     4.598659    -5.454232
 H     7.789392     1.797071    -0.780209
 O     6.997322     1.466003    -1.242007
 H     7.350249     0.808290    -1.875317
 H     4.533057     2.699989     0.518594
 O     4.865090     2.298088     1.346796
 H     4.799766     3.015069     2.010972
 H     1.040529    -3.095474    -2.295081
 O     1.900089    -2.929504    -2.709075
 H     1.995673    -1.954021    -2.693338
 H     1.230177     4.598209    -0.321514
 O     0.770219     4.097447     0.388578
 H     0.095725     4.693200     0.761769
 H    -5.729213     0.954350     1.342223
 O    -6.207884     1.775730     1.573185
 H    -7.142733     1.558314     1.326055
 H    -2.292079    -2.657860     0.173418
 O    -1.809358    -2.122522     0.832142
 H    -0.903566    -2.473159     0.810949
 H    -3.671924    -0.567536     4.295947
 O    -3.664433    -0.748482     5.263600
 H    -4.422529    -1.333423     5.491415
 H    -6.078715    -3.011435     3.121811
 O    -5.627286    -2.160982     3.252039
 H    -4.676485    -2.394931     3.237168
 H    -2.861735    -0.255067    -2.969298
 O    -2.601476    -0.274815    -3.917199
 H    -2.451211    -1.238036    -4.043472
 H    -3.469839    -3.205008    -3.842813
 O    -2.606379    -2.843349    -3.581682
 H    -1.919970    -3.470351    -3.883788
 H     3.213266    -0.997137    -4.286347
 O     2.657745    -1.075476    -5.085024
 H     3.288181    -1.203981    -5.812583
 H     4.727558     2.589902    -6.448707
 O     4.170705     1.788912    -6.523718
 H     3.324299     2.120502    -6.855939
 H    -4.163801     0.661319     5.872614
 O    -4.638515     1.476931     6.176433
 H    -5.202473     1.742536     5.422028
 H    -3.943350    -0.201380     2.041620
 O    -3.401149     0.069755     2.802130
 H    -3.311046     1.043622     2.769863
 H    -5.791756     0.706414    -2.161807
 O    -6.340190     0.070981    -2.666738
 H    -5.914528     0.017073    -3.544228
 H     1.859377    -3.645577    -4.287925
 O     1.797501    -4.060424    -5.170558
 H     1.388332    -4.927991    -5.020386
 H     4.450310    -3.589245    -0.806335
 O     4.736296    -2.870962    -0.199626
 H     3.978280    -2.240934    -0.168904
 H    -0.215583     3.037370    -0.695296
 O    -0.968074     2.693742    -1.204949
 H    -1.677759     3.348855    -1.040221
 H     1.807632     4.263068     1.830363
 O     2.265745     4.350537     2.686201
 H     2.069267     3.536818     3.176689
 H     3.721784     1.030050     1.736126
 O     2.947005     0.449789     1.867299
 H     2.178944     1.032175     2.026241
 H     3.114872    -3.899204    -2.256590
 O     3.811403    -4.546023    -1.984415
 H     4.488747    -4.514532    -2.678224
 H     4.941935    -3.602846    -4.696127
 O     5.374293    -3.339634    -3.846936
 H     4.978858    -2.491065    -3.560935
 H    -1.025788     4.915888     2.426762
 O    -1.200048     5.512683     1.661576
 H    -1.841925     5.052930     1.060640
 H    -5.654708     3.162577     0.702024
 O    -5.199650     3.699030     0.025131
 H    -5.645388     4.564460    -0.082172
 H     5.000444    -4.077533     2.735534
 O     4.248045    -3.861500     2.178357
 H     4.580925    -3.529986     1.314040
 H     5.838580    -1.437542     1.294027
 O     5.447068    -0.542656     1.333577
 H     6.235944     0.028675     1.410016
 H     1.555508    -6.551705    -3.371901
 O     1.370621    -6.717216    -4.321513
 H     2.244046    -6.775475    -4.735934
 H    -7.226246    -3.630574     0.639180
 O    -8.194347    -3.606945     0.440621
 H    -8.650977    -3.457861     1.297089
 H     3.224841    -2.630851     2.694045
 O     2.545503    -1.967667     2.919816
 H     2.772936    -1.138278     2.462195
 H    -1.880636     2.386545     5.281398
 O    -2.592423     3.026941     5.466026
 H    -3.336421     2.508257     5.826796
 H    -0.793044     0.661137     4.077031
 O    -0.666273     1.168392     4.910220
 H     0.176386     1.621778     4.799690
 H     1.196424     3.594946    -7.413494
 O     1.865790     3.332992    -6.709110
 H     1.482283     2.572168    -6.221562
 H     7.141257    -3.186817     4.561345
 O     6.382332    -3.606867     4.090813
 H     5.579718    -3.272105     4.557013
 H     8.014863     1.318924     1.491886
 O     7.923406     0.377347     1.730569
 H     8.404282    -0.146639     1.062981
 H    -4.092567    -0.235634    -4.632758
 O    -5.022441    -0.250694    -4.967216
 H    -5.009214     0.171957    -5.847449
 H     6.434145    -1.367692    -2.229371
 O     6.842852    -1.869599    -1.518782
 H     6.111707    -2.170681    -0.946748
 H     4.712452    -1.130809     4.406421
 O     5.128955    -0.365195     3.976282
 H     5.073275    -0.477345     3.003434
 H     0.019111     3.118884     3.099156
 O    -0.602507     3.759156     3.500090
 H    -0.289583     3.966320     4.401858
 H     8.236752    -1.256959    -0.772082
 O     9.028085    -0.913642    -0.301100
 H     9.722094    -1.577080    -0.416886
 H     9.592499    -4.004382     1.938196
 O     9.295484    -3.764536     1.033635
 H     10.060842    -3.574829     0.480030
 H    -2.404775    -2.813882     3.745479
 O    -3.030547    -2.856055     3.012582
 H    -2.574016    -2.487396     2.214785
 H    -2.168386     1.088962    -6.159643
 O    -2.832779     1.812766    -6.162765
 H    -3.052066     1.919756    -5.208517
 H    -1.453222     4.249712    -5.233728
 O    -1.786318     4.341905    -6.156875
 H    -2.194939     3.466198    -6.317547
 H    -4.643271    -6.156812    -1.441310
 O    -5.109328    -5.428748    -1.003613
 H    -5.877994    -5.217422    -1.576041
 H     2.638876    -5.737882    -1.783889
 O     1.830205    -6.285748    -1.726152
 H     1.070659    -5.658020    -1.577650
 H     3.251533    -3.980453    -5.841605
 O     4.211106    -3.965641    -6.109677
 H     4.329076    -3.196123    -6.673340
 H     7.518186     3.273794     2.254536
 O     7.430287     2.967655     1.342991
 H     6.498340     2.644985     1.275447
 H     6.613633    -3.931734     0.140087
 O     7.095239    -4.732795    -0.125709
 H     7.984967    -4.597705     0.255983
 H    -7.526930    -4.252044    -2.643106
 O    -7.303699    -5.193904    -2.472258
 H    -7.924901    -5.498804    -1.783470
 H    -4.317734     6.511278     5.334102
 O    -3.433713     6.183549     5.081665
 H    -2.950849     5.929610     5.882981
 H     7.312353     3.217326     5.023727
 O     7.305336     2.864404     4.124319
 H     7.552765     1.923800     4.209378
 H    -5.770517     0.534633     7.028837
 O    -6.543251    -0.016909     7.292117
 H    -6.274631    -0.932162     7.106871
 H    -0.504333    -4.710977    -3.127308
 O    -0.673298    -4.562305    -4.075457
 H    -1.272674    -5.253673    -4.384852
 H     6.731915    -0.053049     4.353178
 O     7.703023     0.134648     4.317531
 H     7.913969     0.141281     3.357134
 H     4.762365    -6.456416    -4.208898
 O     4.066293    -6.593481    -4.887134
 H     4.194111    -5.890173    -5.532425
 H    -5.930553    -1.574435    -5.289128
 O    -6.551754    -2.327377    -5.439965
 H    -7.402621    -1.886385    -5.696373
 H    -7.639290     0.350423     6.100033
 O    -8.200259     0.725927     5.374967
 H    -8.807306     1.335264     5.798246
 H    -5.178911     5.628049     2.643837
 O    -5.410133     6.554749     2.429092
 H    -4.550099     7.023769     2.433909
 H     5.783864     1.765710    -3.897358
 O     6.014200     1.009803    -4.479025
 H     5.521242     1.149686    -5.291237
 H    -5.818339     6.447320     0.769580
 O    -5.848583     6.273218    -0.194326
 H    -4.958120     6.521778    -0.521124
 H    -0.313012    -7.281677    -3.501937
 O    -1.012612    -7.436486    -2.856635
 H    -0.615211    -7.827563    -2.069698
 H    -2.519148    -1.895661     5.469615
 O    -1.870643    -2.632661     5.570772
 H    -1.033776    -2.181929     5.790946
 H     7.495181    -4.466866    -1.774421
 O     7.610503    -4.405650    -2.746884
 H     6.839674    -3.904097    -3.064477
 H    -8.847023    -2.710035    -3.377415
 O    -7.924368    -2.652627    -3.038468
 H    -7.380278    -2.425525    -3.807927
 H     8.804027    -3.212209    -3.071203
 O     9.440412    -2.482828    -3.227455
 H     8.944894    -1.655794    -3.088171
 H    -5.122684    -4.746860    -3.795812
 O    -5.079919    -3.792193    -3.616330
 H    -5.599346    -3.359092    -4.304937
 H    -3.621732     4.203165    -3.266186
 O    -3.329128     5.035987    -2.861716
 H    -3.622861     5.762053    -3.412896
 H    -0.213455     4.874211    -3.794150
 O    -0.888118     4.204292    -3.559516
 H    -1.629906     4.682757    -3.129950
 H    -1.953305    -4.371491     5.173842
 O    -2.252583    -5.211565     4.792138
 H    -3.185312    -5.049207     4.566497
 H    -2.365212     8.573594    -3.243566
 O    -2.557880     7.627057    -3.398595
 H    -2.401663     7.461127    -4.359447
 H    -2.926860     7.129641     3.663059
 O    -2.853952     7.375053     2.725369
 H    -2.262409     6.699705     2.335535
 H     4.833335     1.282994     4.283385
 O     4.683684     2.246381     4.166181
 H     5.559855     2.613677     3.943254
 H     7.889199    -2.160021     6.155253
 O     8.326939    -2.316646     5.295772
 H     8.288017    -1.444440     4.855969
 H     6.039129    -1.979090     7.686502
 O     6.745746    -1.440378     7.316935
 H     6.290487    -0.663694     6.921633
 H    -2.055755     6.168485    -6.125386
 O    -2.059148     7.127728    -5.941982
 H    -1.124454     7.415456    -5.994793
 H    -8.179581    -0.371174     3.996898
 O    -8.000842    -0.866852     3.185410
 H    -7.098394    -1.224560     3.265159
 H    -8.513535     0.154376     0.266878
 O    -8.537547     0.755749     1.029676
 H    -8.511397     0.170276     1.805659
 H     0.851387    -0.881265     5.902045
 O     0.019480    -0.976964     6.422041
 H    -0.479935    -0.185897     6.154653
 H    -0.425401     7.068263    -1.258257
 O    -0.382271     6.735508    -2.177456
 H    -1.241455     6.958859    -2.607216
 H     0.539231    -8.071233     0.198531
 O    -0.369302    -8.300094    -0.050235
 H    -0.818342    -8.405119     0.816548
 H     2.049314     2.356968     5.400004
 O     2.054313     2.125497     4.447011
 H     2.994714     2.154399     4.192971
 H    -8.026652    -5.181424    -5.732075
 O    -7.130497    -5.026851    -6.073352
 H    -6.970757    -4.079509    -5.970640
 H     3.003147    -7.666008     0.692750
 O     2.118763    -7.292185     0.670045
 H     2.035123    -6.909596    -0.241224
 H     3.606600     6.268086    -6.499520
 O     3.705962     5.434354    -7.011835
 H     2.957165     4.871715    -6.744918
 H    -0.469970     6.923375     0.906969
 O    -0.161510     7.656648     0.347859
 H    -0.833346     8.347837     0.438624
 H     4.476675     3.325851     5.423251
 O     4.397064     3.936499     6.195463
 H     5.279878     3.972905     6.573177
 H     7.683306     2.374614     6.950899
 O     7.160789     3.219672     6.919589
 H     7.653950     3.850942     7.442334
 H     4.000799    -7.991102    -1.417680
 O     4.525106    -7.492604    -0.769572
 H     4.970193    -6.821094    -1.311578
 H     6.671143    -5.868376    -2.973524
 O     5.899253    -6.464230    -2.952030
 H     6.231427    -7.379748    -2.932087
 H    -9.000673    -2.238562     2.955527
 O    -9.491480    -3.040941     2.678946
 H    -10.228120    -2.703323     2.141500
 H    -2.616950     8.676192     1.496510
 O    -2.474446     9.078098     0.623313
 H    -3.268927     9.651186     0.483801
 H     8.122674     0.197229     7.385370
 O     8.466870     0.920352     6.849877
 H     8.313727     0.641047     5.930634
 H    -2.312589     4.706488     7.959770
 O    -2.032629     4.967424     7.083551
 H    -2.232006     4.192225     6.477833
 H    -6.351421    -6.210262    -3.589586
 O    -5.686698    -6.375235    -4.282977
 H    -6.128447    -6.044968    -5.094992
 H     6.774338    -2.994439     2.548419
 O     6.896095    -2.687867     1.630460
 H     7.841874    -2.761767     1.436123
 H     2.366595     6.699838    -0.467340
 O     2.627529     7.415031     0.155694
 H     1.787465     7.731473     0.510618
 H    -4.254142    -7.185505    -3.199658
 O    -3.689891    -7.273409    -2.422865
 H    -2.781797    -7.383934    -2.757674
 H     0.844145     6.924406    -5.318159
 O     0.683861     7.832603    -5.668778
 H     0.634646     8.386981    -4.857846
 H    -8.297195    -1.513214    -1.678007
 O    -8.584629    -1.287972    -0.779522
 H    -8.358738    -2.104048    -0.278736
 H    -3.232178     7.216668    -1.777187
 O    -3.328517     6.991402    -0.841492
 H    -3.019833     7.767545    -0.329305
 H     2.791701    -4.720594     2.113942
 O     1.874109    -5.057171     2.106238
 H     1.923533    -5.926284     1.657304
 H    -8.852252    -0.458919    -4.987896
 O    -8.770238    -0.995724    -5.810524
 H    -8.482780    -0.362887    -6.492214
 H     7.521983     0.074341    -3.898859
 O     8.169058    -0.003655    -3.178505
 H     8.847124     0.665995    -3.346321
 H     4.259479     6.616459     0.270352
 O     4.962871     5.991010     0.033840
 H     4.498779     5.165011    -0.229948
 H    -7.969320     0.349349    -3.130192
 O    -8.867782     0.391372    -3.518272
 H    -9.470209     0.125484    -2.822194
 H     6.131599     3.892876    -3.076518
 O     5.649831     3.098864    -2.779617
 H     6.239649     2.634935    -2.139264
 H    -1.389366    -6.931954    -0.206402
 O    -1.999585    -6.178321    -0.340875
 H    -2.597996    -6.443957    -1.045870
 H    -4.016768    -7.834151     0.656008
 O    -4.239087    -7.621986     1.565536
 H    -4.017191    -6.666662     1.677130
 H    -2.903216    -5.149036     0.963427
 O    -3.611934    -5.058421     1.621000
 H    -3.320840    -4.374381     2.257613
 H     5.224332    -6.502741     4.512507
 O     4.470219    -6.226655     3.988209
 H     4.762699    -6.274139     3.062562
 H    -9.630783    -5.956308    -4.128794
 O    -9.644903    -5.453491    -4.975481
 H    -10.290588    -5.892120    -5.529850
 H     6.236527    -5.793929     0.932965
 O     5.720861    -6.409209     1.494092
 H     5.259719    -6.965719     0.855280
 H    -1.414542    -6.887103     2.272610
 O    -1.562939    -7.847760     2.279501
 H    -2.524234    -7.963767     2.270312
 H    -10.121977    -3.760585    -4.599145
 O    -10.242802    -2.848289    -4.286084
 H    -10.008397    -2.262987    -5.019087
 H     0.492949     8.072124    -2.808951
 O     0.826099     8.907602    -3.201429
 H     1.719458     9.041584    -2.829737
 H    -9.174755    -7.778276    -2.836483
 O    -9.757291    -7.018212    -2.798665
 H    -9.632431    -6.628708    -1.914359
 H     2.095124     0.377555     4.632502
 O     2.186040    -0.496144     5.057999
 H     2.390573    -1.143749     4.350525
 H    -6.576334     0.786393    -7.501728
 O    -7.534532     0.874526    -7.368051
 H    -7.680917     1.762072    -7.038542
 H     6.267791     4.144476    -7.058877
 O     5.694686     4.043224    -6.299488
 H     4.882618     4.616945    -6.515886
 H    -5.265701     10.251333     1.215127
 O    -4.776089     10.308442     0.383680
 H    -5.367742     9.861277    -0.253354
 H    -0.838417    -0.858941    -5.763847
 O    -0.997956    -0.170273    -6.445110
 H    -0.209564     0.401391    -6.360095
 H     4.710908    -0.160117    -6.933558
 O     4.792030    -1.104814    -6.758856
 H     5.639440    -1.231326    -6.297473
 H     2.448942    -8.752132    -3.030592
 O     3.406341    -8.688732    -3.025447
 H     3.636556    -8.068616    -3.733124
 H    -4.267407    -0.054686    -7.836442
 O    -4.772362     0.686905    -7.469717
 H    -4.087464     1.301674    -7.117739
 H     1.383057     3.362461     6.886149
 O     2.125487     2.752693     7.063743
 H     2.942261     3.275950     6.965393
 H    -11.362541    -2.586227    -0.039666
 O    -10.938939    -1.984065     0.572320
 H    -10.205086    -1.573377     0.081882
 H    -7.384876     1.653194     7.755908
 O    -7.851720     2.500222     7.715138
 H    -7.965673     2.794499     8.618290
 H     6.117908    -9.060957    -1.576996
 O     6.197402    -9.133749    -2.533077
 H     5.309798    -9.337370    -2.853545
 H     6.638500     5.185972    -0.506476
 O     7.272018     4.532131    -0.819040
 H     7.461172     3.958655    -0.048370
 H    -5.374619    -3.120257     5.757535
 O    -5.381520    -2.387776     6.412624
 H    -4.754452    -2.679081     7.097069
 H     2.637055     1.069862     7.573998
 O     3.098683     0.229058     7.445335
 H     2.772927    -0.113955     6.586625
 H    -2.709548    -3.195421     6.959286
 O    -3.195827    -3.365541     7.794809
 H    -2.570555    -3.074471     8.474359
 H     5.806575     1.641567     6.786471
 O     5.511896     0.784217     6.474131
 H     4.626887     0.620726     6.862593
 H     1.958464    -4.593430     3.948853
 O     2.444179    -4.573987     4.786085
 H     3.137454    -5.247258     4.668954
 H     10.402722    -2.737612    -1.912365
 O     10.901156    -2.791213    -1.051975
 H     11.829930    -2.759915    -1.274916
 H     3.985223     8.344612    -2.390135
 O     3.262083     8.891494    -2.059357
 H     3.064558     8.531026    -1.174091
 H    -8.209333    -6.446236     0.140846
 O    -8.854261    -5.991569    -0.424954
 H    -8.792788    -5.056600    -0.110094
 H    -0.675454     9.799649    -2.736362
 O    -1.608720     9.962847    -2.506789
 H    -1.668254     10.034888    -1.551766
 H     4.117643     4.129786    -3.542670
 O     3.575769     4.924765    -3.522800
 H     4.154081     5.674700    -3.277602
 H     5.208098     6.608089    -1.617809
 O     5.138505     6.873551    -2.557007
 H     5.911716     6.521208    -3.019355
 H    -0.336759     4.862694     6.386272
 O     0.378572     4.401625     5.925579
 H     1.073773     5.052836     5.666257
 H     3.248480     5.262054     5.456173
 O     2.488428     5.728419     5.077399
 H     2.430509     5.440272     4.152731
 H    -7.119423     9.002183     0.336352
 O    -6.831931     8.819638    -0.567866
 H    -6.607606     7.872559    -0.585992
 H    -1.334518    -5.215510     3.392984
 O    -0.888804    -5.086229     2.524815
 H     0.028066    -5.362101     2.605469
 H     4.233224    -2.496783     6.171701
 O     4.229209    -2.604047     5.196317
 H     3.510500    -3.237733     4.995249
 H     7.073999    -6.387594     2.906858
 O     7.455335    -6.064877     3.733023
 H     6.987829    -5.230484     3.925776
 H     9.006052    -5.103530     3.705138
 O     9.643617    -4.372201     3.601911
 H     9.384067    -3.699372     4.243264
 H     3.565271     7.890732    -4.666940
 O     3.378382     7.665284    -5.580008
 H     2.441017     7.887017    -5.743536
 H    -0.582412    -1.722527     8.096055
 O    -0.792564    -2.389256     8.764873
 H    -0.087258    -3.039859     8.706071
 H     8.388723     4.502345    -2.018636
 O     9.062649     4.558469    -2.743788
 H     9.794060     5.047000    -2.366008
 H     6.404780     4.844511    -4.908153
 O     6.722120     5.214091    -4.059800
 H     7.668591     5.050375    -3.978129
 H     10.650134     2.250725    -4.050498
 O     9.918889     2.120248    -3.448653
 H     9.542708     3.005654    -3.245598
 H     3.151821    -2.845721     7.812367
 O     3.988011    -2.340947     7.836378
 H     3.717474    -1.418207     7.958866
 H    -2.459631    -1.570414    -8.797399
 O    -2.866708    -1.269788    -7.985952
 H    -2.157870    -0.845494    -7.454557
 H     5.142540     5.252977     1.833799
 O     4.934563     4.663175     2.568665
 H     3.965645     4.689657     2.673119
 H    -3.810550    -6.076298    -5.044915
 O    -2.999902    -5.565777    -5.104275
 H    -3.226030    -4.763383    -5.600920
 H    -6.510175     5.943795     5.298181
 O    -6.069215     6.777600     5.051113
 H    -5.941597     6.739223     4.077272
 H    -7.413711     3.863871     6.422121
 O    -7.153134     4.330374     5.618014
 H    -6.915023     3.630340     4.988718
 H    -7.190176     9.389411     2.991045
 O    -6.947053     9.819687     2.145782
 H    -7.410822     10.657711     2.136245
 H    -6.004343    -7.007812     1.461083
 O    -6.615120    -6.354881     1.085150
 H    -6.077479    -5.884452     0.412543
 H    -3.778203    -5.061911     7.478491
 O    -4.019793    -5.883615     7.014508
 H    -3.232535    -6.138658     6.519607
 H     9.552560     0.759579    -0.496457
 O     9.607140     1.722738    -0.635269
 H     9.913288     1.831861    -1.541775
 H    -7.977163    -4.328812     3.158110
 O    -7.053024    -4.598374     3.144688
 H    -6.932417    -5.205568     2.386615
 H     1.068468    -2.657736     6.845812
 O     1.565029    -3.417101     7.169606
 H     1.770871    -3.954772     6.388855
 H    -3.484900    -2.567156    -6.878721
 O    -3.899779    -3.220196    -6.295986
 H    -4.847856    -3.078898    -6.366863
 H    -8.626998     8.215699     4.353024
 O    -7.832201     8.736898     4.475927
 H    -7.157162     8.120311     4.829933
 H     7.984669    -1.949705    -5.242362
 O     7.061759    -1.690947    -5.249788
 H     6.591891    -2.355754    -4.712136
 H    -4.901545    -5.174773     5.634831
 O    -4.946434    -4.555177     4.880443
 H    -5.713649    -4.773844     4.332042
 N     0.111942     4.436610    -8.449871
 H    -0.660515     4.556056    -7.788712
 H    -0.254672     4.015324    -9.296666
 H     0.461114     5.358855    -8.693780
