604
grain_mol52 // -1645.755742695525 // -45.0760061739 // -668.045264799425 // -1022.78648407 // -0.0469509756 // -0.584830847947 // -0.013059749233
 H    -1.732928     0.066866     2.494194
 O    -0.754640     0.048454     2.571377
 H    -0.521185    -0.852085     2.898248
 H    -0.463746    -1.795093    -2.841520
 O    -0.534255    -1.807205    -1.874411
 H    -1.475847    -1.667840    -1.677985
 H    -2.607015     2.004760     0.869590
 O    -2.542844     1.356067     0.148627
 H    -1.747300     1.601105    -0.357788
 H    -3.608422     2.142183    -2.998988
 O    -3.080188     2.459891    -3.768356
 H    -2.170241     2.549753    -3.466794
 H    -0.101377    -0.575422    -0.784960
 O     0.063394     0.149805    -0.151661
 H    -0.377248    -0.110894     0.667717
 H     0.878390    -1.932281    -4.774243
 O    -0.066200    -2.067851    -4.592614
 H    -0.206517    -3.026046    -4.624449
 H    -4.780430     2.680404    -1.253186
 O    -4.454669     1.836378    -1.621941
 H    -3.791889     1.528615    -0.959333
 H    -3.332232     3.594004     2.509914
 O    -2.641425     2.939397     2.290523
 H    -1.851884     3.248257     2.771766
 H     2.594731     0.176439    -2.935631
 O     1.961642    -0.425644    -2.493796
 H     1.073724    -0.073190    -2.697226
 H    -1.093529     0.412490    -3.580651
 O    -0.263573     0.853186    -3.302387
 H    -0.480527     1.466368    -2.580898
 H     2.684225    -0.660494     0.576501
 O     2.553114    -1.404689    -0.046686
 H     2.304704    -1.013713    -0.906128
 H    -2.832842    -0.283574    -0.566461
 O    -2.993181    -0.744313    -1.400648
 H    -3.824849    -1.246660    -1.321230
 H     2.916718     1.159194    -0.801612
 O     2.123800     1.712161    -0.685472
 H     1.378321     1.101167    -0.505169
 H     0.754268     3.187528    -3.238604
 O     1.663158     2.958642    -3.003495
 H     1.645697     2.502949    -2.142316
 H    -0.033659    -3.947436    -0.518860
 O    -0.302189    -4.627502    -1.177485
 H    -1.107176    -5.034956    -0.785596
 H    -6.081021     2.505443     3.041450
 O    -6.125033     2.714774     4.011366
 H    -6.900028     2.227501     4.353881
 H     0.999343    -3.720422     1.329973
 O     0.615745    -3.057532     0.727187
 H     1.326152    -2.434585     0.470970
 H    -2.596371     5.405112    -0.996959
 O    -2.453802     4.602772    -0.460348
 H    -3.358436     4.281783    -0.262856
 H    -5.519736    -0.938879     1.721155
 O    -5.216163    -0.321594     1.022344
 H    -5.351381    -0.778269     0.186471
 H    -0.449919    -3.119139     3.070407
 O    -0.099282    -2.323121     3.503977
 H     0.848066    -2.271403     3.295463
 H     5.329993     0.806372    -1.170231
 O     4.519877     0.316915    -0.967950
 H     4.731182    -0.101782    -0.103481
 H     0.894889     2.409649     1.053466
 O     0.874336     2.076887     1.960019
 H     0.226021     1.351409     2.016768
 H     4.452231    -0.687660    -2.323752
 O     4.625975    -1.189210    -3.152611
 H     5.137037    -0.572310    -3.717138
 H     3.246970     3.144878    -1.006640
 O     4.145076     3.501015    -0.989615
 H     4.611064     3.180489    -1.785442
 H    -5.912212    -1.166147    -1.858628
 O    -5.414965    -1.888245    -1.416464
 H    -5.368867    -2.611775    -2.066833
 H    -5.063534    -3.761436     1.288770
 O    -5.722076    -3.099565     1.007328
 H    -5.483043    -2.828340     0.110498
 H     2.847203     2.036949    -3.666872
 O     3.484884     1.321974    -3.870196
 H     3.550754     1.275874    -4.829633
 H    -4.903284     4.174998     3.748194
 O    -4.303943     4.729714     3.237733
 H    -3.749520     5.239482     3.866485
 H     0.716232     0.993760    -4.720505
 O     1.198528     0.848362    -5.560428
 H     1.764915     0.065786    -5.398464
 H     1.356697     5.764295    -2.304040
 O     2.133531     5.400255    -1.845905
 H     2.661528     4.921629    -2.515222
 H    -2.927674    -3.296188    -1.750627
 O    -3.078884    -3.540239    -0.821685
 H    -3.875795    -4.089394    -0.784278
 H     2.369187     5.077898    -4.555172
 O     1.498217     5.208646    -4.968575
 H     1.448669     4.509332    -5.647759
 H     7.891481     1.487656    -0.924056
 O     7.084681     1.163679    -1.364900
 H     7.407661     0.458801    -1.962136
 H     4.682013     2.595163     0.329761
 O     5.000206     2.225044     1.178226
 H     4.968252     2.980651     1.801235
 H     0.937046    -3.191968    -2.156814
 O     1.801227    -3.085974    -2.580776
 H     1.937913    -2.115893    -2.618190
 H     1.456999     4.582181    -0.606038
 O     0.978559     4.138941     0.130856
 H     0.333037     4.783513     0.472321
 H    -5.640983     1.330974     1.267192
 O    -6.083892     2.182778     1.454430
 H    -7.028344     1.991464     1.220986
 H    -2.363368    -2.481342     0.289512
 O    -1.856568    -1.932844     0.919086
 H    -0.965755    -2.320279     0.914127
 H    -3.636716    -0.112624     4.295618
 O    -3.632500    -0.242223     5.271586
 H    -4.414164    -0.780251     5.532248
 H    -6.147919    -2.515189     3.258796
 O    -5.661425    -1.679408     3.346130
 H    -4.720942    -1.952347     3.340619
 H    -2.844909    -0.230929    -2.977849
 O    -2.587396    -0.313512    -3.923094
 H    -2.481407    -1.288205    -3.996479
 H    -3.581789    -3.194120    -3.685764
 O    -2.700890    -2.856853    -3.447918
 H    -2.044564    -3.527615    -3.718796
 H     3.186524    -1.299565    -4.263048
 O     2.625995    -1.396900    -5.056464
 H     3.247233    -1.597248    -5.775108
 H     4.807953     2.117834    -6.631437
 O     4.237018     1.322503    -6.639711
 H     3.411033     1.597291    -7.046397
 H    -4.069943     1.219449     5.803849
 O    -4.509291     2.069066     6.063703
 H    -5.064566     2.317073     5.296853
 H    -3.902298     0.140828     2.025366
 O    -3.345981     0.429339     2.769106
 H    -3.215049     1.395528     2.683690
 H    -5.728925     0.895536    -2.217851
 O    -6.305169     0.256121    -2.684546
 H    -5.887605     0.135846    -3.559207
 H     1.723791    -3.885197    -4.117207
 O     1.641650    -4.344343    -4.975994
 H     1.195693    -5.183817    -4.778815
 H     4.329733    -3.747717    -0.649613
 O     4.648128    -3.010032    -0.083979
 H     3.917395    -2.347753    -0.086003
 H    -0.053866     3.066283    -0.892118
 O    -0.821945     2.726097    -1.380998
 H    -1.502293     3.419138    -1.250852
 H     2.030110     4.342094     1.559051
 O     2.494253     4.455231     2.408616
 H     2.265870     3.677997     2.942147
 H     3.806346     1.030192     1.637892
 O     3.008687     0.490203     1.801378
 H     2.266250     1.112195     1.930027
 H     2.976323    -4.079833    -2.078464
 O     3.645764    -4.740145    -1.772811
 H     4.321303    -4.775310    -2.468111
 H     4.803998    -3.994270    -4.533581
 O     5.251112    -3.702710    -3.701516
 H     4.892014    -2.824445    -3.460858
 H    -0.771959     5.143339     2.125448
 O    -0.925136     5.704683     1.329817
 H    -1.586733     5.240042     0.755107
 H    -5.477243     3.495486     0.507271
 O    -5.002858     3.974545    -0.198810
 H    -5.412213     4.850974    -0.352141
 H     4.874041    -4.064511     2.912531
 O     4.128876    -3.849051     2.345424
 H     4.471947    -3.578601     1.464010
 H     5.816513    -1.545105     1.326846
 O     5.462592    -0.633943     1.317893
 H     6.274686    -0.092397     1.361812
 H     1.301187    -6.721964    -3.043114
 O     1.104142    -6.932092    -3.981302
 H     1.972255    -7.048555    -4.394615
 H    -7.333212    -3.211432     0.820141
 O    -8.298770    -3.147577     0.625468
 H    -8.745386    -2.939405     1.474293
 H     3.160776    -2.548958     2.795047
 O     2.510049    -1.847090     2.985049
 H     2.770462    -1.053460     2.483403
 H    -1.719134     2.812022     5.114901
 O    -2.402751     3.490737     5.265677
 H    -3.166311     3.024537     5.655713
 H    -0.709866     0.979645     4.004300
 O    -0.558326     1.524671     4.808832
 H     0.301690     1.936429     4.671867
 H     0.454221     3.464452    -6.919042
 O     1.398314     3.218983    -6.801352
 H     1.373849     2.368631    -6.322856
 H     7.058297    -3.166931     4.682003
 O     6.280247    -3.579784     4.236739
 H     5.494616    -3.186473     4.685836
 H     8.105967     1.124470     1.370167
 O     7.976804     0.201458     1.659394
 H     8.432797    -0.377071     1.020176
 H    -4.081128    -0.248878    -4.637137
 O    -5.011850    -0.242581    -4.967727
 H    -4.985422     0.129543    -5.870370
 H     6.399185    -1.691692    -2.195549
 O     6.789180    -2.172673    -1.460506
 H     6.048699    -2.410021    -0.870745
 H     4.717016    -1.022370     4.420139
 O     5.163592    -0.299814     3.947907
 H     5.098734    -0.461822     2.982753
 H     0.200986     3.343886     2.892556
 O    -0.392845     4.029070     3.259703
 H    -0.066917     4.273218     4.147526
 H     8.210803    -1.578675    -0.750926
 O     9.017970    -1.243481    -0.301645
 H     9.683088    -1.940855    -0.382025
 H     9.461689    -4.228589     2.102542
 O     9.171221    -4.026379     1.186690
 H     9.941601    -3.899193     0.622289
 H    -2.467713    -2.437155     3.866402
 O    -3.097175    -2.495473     3.137683
 H    -2.629494    -2.188635     2.320061
 H    -2.103137     0.924483    -6.259793
 O    -2.692959     1.702974    -6.296837
 H    -2.933524     1.898193    -5.367259
 H    -1.020677     3.940170    -5.493931
 O    -1.148170     3.911519    -6.470646
 H    -1.776076     3.180314    -6.611435
 H    -4.798145    -5.939602    -1.183845
 O    -5.231664    -5.207105    -0.704980
 H    -6.030772    -4.956416    -1.241145
 H     2.425906    -5.868730    -1.505199
 O     1.594947    -6.377772    -1.415349
 H     0.863699    -5.710939    -1.299865
 H     3.094152    -4.363478    -5.653002
 O     4.052446    -4.403288    -5.923312
 H     4.199623    -3.672565    -6.529902
 H     7.695782     3.137562     2.024075
 O     7.591461     2.784040     1.131613
 H     6.645846     2.499548     1.083822
 H     6.481203    -4.128791     0.309932
 O     6.927381    -4.962769     0.086837
 H     7.823729    -4.844729     0.458683
 H    -7.636079    -3.896896    -2.334323
 O    -7.446644    -4.828097    -2.069791
 H    -8.171433    -5.074790    -1.455386
 H    -3.981150     7.032435     4.946861
 O    -3.113002     6.653816     4.711163
 H    -2.637486     6.424680     5.524214
 H     7.499590     3.240281     4.793344
 O     7.474099     2.838942     3.914836
 H     7.682232     1.894980     4.050987
 H    -5.675656     1.223799     6.968595
 O    -6.469469     0.720199     7.263572
 H    -6.240352    -0.214162     7.128007
 H    -0.677457    -4.783760    -2.896443
 O    -0.842182    -4.682627    -3.851492
 H    -1.473108    -5.362127    -4.121212
 H     6.779850    -0.034988     4.304026
 O     7.757885     0.108602     4.256222
 H     7.964594     0.055027     3.296377
 H     4.506618    -6.807149    -3.890864
 O     3.801655    -6.951315    -4.558399
 H     3.956652    -6.291326    -5.242309
 H    -5.976780    -1.544945    -5.216704
 O    -6.627674    -2.279108    -5.325608
 H    -7.461431    -1.819205    -5.604026
 H    -7.554590     1.068295     6.055386
 O    -8.102302     1.426532     5.311812
 H    -8.681751     2.083098     5.701845
 H    -4.889934     6.040990     2.310227
 O    -5.083114     6.963517     2.045859
 H    -4.204000     7.395474     2.023486
 H     5.875351     1.370817    -4.028857
 O     6.072290     0.576240    -4.571466
 H     5.581303     0.691337    -5.387539
 H    -5.502315     6.783191     0.395588
 O    -5.543586     6.557945    -0.557307
 H    -4.644966     6.751177    -0.898761
 H    -0.605910    -7.376720    -3.127199
 O    -1.305594    -7.470275    -2.469848
 H    -0.913632    -7.832079    -1.666251
 H    -2.535938    -1.423044     5.537868
 O    -1.918455    -2.180325     5.677362
 H    -1.062630    -1.753565     5.871541
 H     7.331342    -4.804267    -1.574276
 O     7.444701    -4.801253    -2.548941
 H     6.694466    -4.285315    -2.891606
 H    -8.931226    -2.446886    -3.240804
 O    -8.007188    -2.376398    -2.908097
 H    -7.456931    -2.241270    -3.694367
 H     8.685741    -3.678300    -2.940927
 O     9.351078    -2.985961    -3.139230
 H     8.891753    -2.132371    -3.042765
 H    -5.318768    -4.654273    -3.536077
 O    -5.207237    -3.692357    -3.427012
 H    -5.718225    -3.279310    -4.133897
 H    -3.429913     4.230686    -3.514351
 O    -3.096171     5.070051    -3.157886
 H    -3.352962     5.780181    -3.747368
 H     0.004958     4.797009    -4.049899
 O    -0.682833     4.137782    -3.848390
 H    -1.442730     4.620653    -3.465075
 H    -2.074864    -3.932880     5.376817
 O    -2.411190    -4.778846     5.041532
 H    -3.337313    -4.589086     4.810240
 H    -1.974740     8.536509    -3.749843
 O    -2.224541     7.595432    -3.852461
 H    -2.042683     7.348096    -4.785883
 H    -2.572358     7.499818     3.241793
 O    -2.494466     7.690058     2.291851
 H    -1.932369     6.970892     1.938191
 H     4.938810     1.374169     4.165397
 O     4.828734     2.335023     3.996348
 H     5.718051     2.653127     3.750969
 H     7.855451    -2.087669     6.215958
 O     8.282275    -2.309291     5.365315
 H     8.278225    -1.461251     4.878835
 H     6.021104    -1.745459     7.739098
 O     6.748077    -1.258343     7.338742
 H     6.324231    -0.485501     6.902913
 H    -1.454981     5.763833    -6.464524
 O    -1.543095     6.710199    -6.272950
 H    -0.653511     7.092813    -6.375845
 H    -8.133572     0.257560     3.995706
 O    -7.978647    -0.289693     3.212956
 H    -7.091525    -0.679219     3.310642
 H    -8.461736     0.593420     0.242414
 O    -8.455531     1.235677     0.972100
 H    -8.452582     0.691881     1.777990
 H     0.876094    -0.529386     5.907677
 O     0.042804    -0.562171     6.433347
 H    -0.423672     0.234023     6.124631
 H    -0.095050     7.068039    -1.672317
 O    -0.075507     6.678376    -2.569404
 H    -0.921986     6.917268    -3.010141
 H     0.238509    -7.999753     0.603810
 O    -0.680657    -8.203432     0.371876
 H    -1.127404    -8.241424     1.245219
 H     2.206634     2.623279     5.227429
 O     2.197837     2.338621     4.288967
 H     3.137427     2.316190     4.031131
 H    -8.214531    -5.102777    -5.435073
 O    -7.315890    -4.995903    -5.797640
 H    -7.125301    -4.050266    -5.750581
 H     2.718333    -7.672394     1.073356
 O     1.849755    -7.264700     1.030619
 H     1.780470    -6.927743     0.100277
 H     3.596469     5.542841    -7.447429
 O     3.701971     4.574606    -7.565778
 H     2.852903     4.166401    -7.335741
 H    -0.138158     7.040893     0.497692
 O     0.198704     7.728816    -0.100762
 H    -0.442239     8.452192    -0.048263
 H     4.672543     3.489485     5.192586
 O     4.621803     4.143156     5.931231
 H     5.507326     4.163827     6.303694
 H     7.843503     2.488686     6.763227
 O     7.356355     3.351707     6.687076
 H     7.877666     3.989571     7.173232
 H     3.693745    -8.153663    -1.019511
 O     4.240297    -7.642696    -0.400148
 H     4.711786    -7.021477    -0.978602
 H     6.443916    -6.232967    -2.693552
 O     5.647785    -6.793779    -2.638153
 H     5.941528    -7.719987    -2.568898
 H    -9.037404    -1.626395     3.062758
 O    -9.561346    -2.423205     2.835245
 H    -10.284999    -2.088050     2.278464
 H    -2.207825     8.911483     0.992971
 O    -2.053834     9.257525     0.098143
 H    -2.823043     9.856339    -0.070351
 H     8.192825     0.321350     7.315170
 O     8.564910     0.998910     6.740225
 H     8.396072     0.676772     5.837916
 H    -2.042293     5.290483     7.663506
 O    -1.755145     5.491317     6.773888
 H    -1.989348     4.693636     6.211586
 H    -6.663579    -5.988215    -3.266917
 O    -5.963498    -6.248615    -3.904717
 H    -6.370339    -6.004183    -4.767155
 H     6.691089    -3.069147     2.662604
 O     6.821454    -2.819284     1.728750
 H     7.762676    -2.942349     1.537220
 H     2.682148     6.622818    -0.866674
 O     2.976228     7.351554    -0.275249
 H     2.151488     7.731017     0.052486
 H    -4.445917    -7.078981    -2.958866
 O    -3.989398    -7.253397    -2.118109
 H    -3.054890    -7.402366    -2.367103
 H     1.210343     6.677620    -5.658522
 O     1.078686     7.555363    -6.086810
 H     1.130563     8.189401    -5.341969
 H    -8.326599    -1.178571    -1.607647
 O    -8.598355    -0.892944    -0.721081
 H    -8.405118    -1.690575    -0.178058
 H    -2.897047     7.304128    -2.195337
 O    -2.998173     7.133160    -1.249255
 H    -2.654647     7.922186    -0.779893
 H     2.637549    -4.647405     2.331358
 O     1.706600    -4.945316     2.343442
 H     1.718036    -5.838865     1.942731
 H    -8.849956    -0.298447    -4.967747
 O    -8.792230    -0.881808    -5.760157
 H    -8.483014    -0.298541    -6.475412
 H     7.539827    -0.390873    -3.943638
 O     8.186106    -0.456851    -3.221667
 H     8.890384     0.174313    -3.426752
 H     4.573579     6.500746    -0.128400
 O     5.249190     5.830842    -0.321076
 H     4.748204     5.016206    -0.548262
 H    -7.924439     0.575948    -3.161623
 O    -8.821546     0.638741    -3.549654
 H    -9.431605     0.431566    -2.840362
 H     6.315649     3.522103    -3.324963
 O     5.804483     2.761927    -2.990751
 H     6.373919     2.312362    -2.322217
 H    -1.641641    -6.805230     0.140198
 O    -2.225829    -6.038919    -0.033452
 H    -2.829702    -6.312839    -0.730128
 H    -4.330613    -7.521761     1.191646
 O    -4.507871    -7.271836     2.108449
 H    -4.254391    -6.311948     2.121438
 H    -3.075670    -4.894560     1.218477
 O    -3.774180    -4.744651     1.875807
 H    -3.454245    -4.036029     2.470939
 H     5.003574    -6.396562     4.818721
 O     4.259181    -6.119291     4.281262
 H     4.546440    -6.228365     3.359188
 H    -9.569897    -5.851189    -3.782697
 O    -9.751126    -5.301410    -4.590340
 H    -10.398841    -5.796663    -5.091574
 H     6.029686    -5.927430     1.203715
 O     5.490798    -6.489014     1.798378
 H     5.004374    -7.059729     1.191714
 H    -1.653542    -6.622177     2.618351
 O    -1.844643    -7.574126     2.675174
 H    -2.809154    -7.648577     2.680914
 H    -10.241513    -3.550722    -4.374350
 O    -10.329421    -2.613484    -4.134120
 H    -10.071359    -2.089695    -4.904759
 H     0.868796     7.946011    -3.287582
 O     1.227944     8.761868    -3.694837
 H     2.136573     8.859449    -3.341557
 H    -8.740056    -7.429441    -2.266540
 O    -9.587222    -7.016273    -2.562611
 H    -9.867597    -6.542585    -1.763262
 H     2.166249     0.605452     4.569599
 O     2.221808    -0.247485     5.041341
 H     2.396354    -0.940080     4.369588
 H    -6.533120     0.717497    -7.552603
 O    -7.485877     0.851613    -7.420633
 H    -7.594463     1.761339    -7.140733
 H     6.415797     3.577341    -7.327227
 O     5.827497     3.546793    -6.572769
 H     5.003585     4.045875    -6.864509
 H    -4.789581     10.578748     0.631313
 O    -4.301872     10.570354    -0.203147
 H    -4.914028     10.114012    -0.813628
 H    -0.855548    -1.068976    -5.736678
 O    -0.988778    -0.410151    -6.452184
 H    -0.176256     0.129519    -6.406108
 H     4.714540    -0.677330    -6.955180
 O     4.752709    -1.612500    -6.727421
 H     5.595695    -1.751588    -6.260755
 H     2.104039    -8.935111    -2.586242
 O     3.063236    -8.912116    -2.585023
 H     3.317235    -8.341855    -3.325778
 H    -4.260339    -0.232675    -7.845637
 O    -4.729167     0.547879    -7.513164
 H    -4.017164     1.155759    -7.209506
 H     1.589449     3.735651     6.657358
 O     2.306271     3.105547     6.866727
 H     3.143862     3.587843     6.738306
 H    -11.421618    -2.044934     0.097610
 O    -10.971241    -1.426281     0.673076
 H    -10.225114    -1.072660     0.157023
 H    -7.238453     2.447035     7.637010
 O    -7.669806     3.309262     7.550472
 H    -7.767693     3.657344     8.436205
 H     5.763882    -9.318713    -1.123643
 O     5.835729    -9.446332    -2.074557
 H     4.939094    -9.630243    -2.381429
 H     6.885079     4.930617    -0.837367
 O     7.488935     4.233482    -1.113780
 H     7.657285     3.697463    -0.312065
 H    -5.438997    -2.508519     5.897691
 O    -5.412322    -1.742641     6.512224
 H    -4.794838    -2.022183     7.210184
 H     2.749516     1.433443     7.466896
 O     3.174389     0.567837     7.383721
 H     2.831081     0.192911     6.545482
 H    -2.773840    -2.630365     7.096559
 O    -3.263570    -2.735223     7.940781
 H    -2.624303    -2.433529     8.602493
 H     5.936774     1.827056     6.642592
 O     5.604997     0.966899     6.378850
 H     4.715471     0.862833     6.777222
 H     1.818633    -4.385339     4.157888
 O     2.307761    -4.341588     4.992106
 H     2.972229    -5.048320     4.910265
 H     10.308134    -3.208820    -1.813605
 O     10.807217    -3.236296    -0.952503
 H     11.735650    -3.256126    -1.178195
 H     4.304244     8.098266    -2.934822
 O     3.656032     8.708312    -2.561710
 H     3.469056     8.372664    -1.665987
 H    -8.601418    -5.921934     0.506353
 O    -9.273261    -5.504068    -0.068487
 H    -9.166356    -4.560495     0.190612
 H    -0.236670     9.716388    -3.299768
 O    -1.164501     9.929482    -3.084561
 H    -1.219987     10.058032    -2.135166
 H     4.329363     3.817550    -3.788565
 O     3.816793     4.631087    -3.814514
 H     4.417007     5.378497    -3.611834
 H     5.514577     6.352940    -2.006976
 O     5.450512     6.559194    -2.959869
 H     6.211632     6.160965    -3.401423
 H    -0.067949     5.277578     6.079707
 O     0.625293     4.761900     5.643881
 H     1.346262     5.368061     5.347599
 H     3.526906     5.474560     5.121773
 O     2.784374     5.950176     4.720574
 H     2.711317     5.616627     3.812304
 H    -6.697297     9.362801    -0.174298
 O    -6.422105     9.119048    -1.067869
 H    -6.237518     8.163892    -1.034417
 H    -1.499803    -4.897484     3.643420
 O    -1.054021    -4.840865     2.767475
 H    -0.146996    -5.143300     2.863392
 H     4.188657    -2.268244     6.258422
 O     4.175825    -2.428800     5.290400
 H     3.430123    -3.041333     5.126033
 H     6.849928    -6.447356     3.205345
 O     7.247567    -6.096614     4.012139
 H     6.816743    -5.233719     4.159661
 H     8.837567    -5.204150     3.928409
 O     9.504518    -4.506940     3.783555
 H     9.276515    -3.789813     4.387857
 H     3.437096     7.759277    -8.095903
 O     3.418318     7.227883    -7.301297
 H     2.556721     7.424755    -6.859393
 H    -0.582479    -1.188511     8.147372
 O    -0.818025    -1.809122     8.851223
 H    -0.139880    -2.490108     8.827476
 H     8.598183     4.093140    -2.310597
 O     9.272274     4.078942    -3.038207
 H     10.023134     4.559947    -2.690099
 H     6.614324     4.372860    -5.207952
 O     6.960148     4.757774    -4.381005
 H     7.898895     4.554495    -4.298871
 H     10.756116     1.641933    -4.219666
 O     10.019141     1.574117    -3.614574
 H     9.683727     2.484742    -3.455194
 H     3.100376    -2.481486     7.918059
 O     3.957117    -2.011989     7.912303
 H     3.726302    -1.073282     7.984877
 H    -2.526055    -1.873162    -8.727639
 O    -2.913533    -1.516497    -7.929349
 H    -2.184630    -1.093499    -7.426274
 H     5.403084     5.187156     1.502338
 O     5.174282     4.646873     2.269169
 H     4.208033     4.721509     2.373780
 H    -4.054117    -6.105679    -4.748213
 O    -3.219830    -5.637272    -4.816567
 H    -3.405683    -4.852705    -5.357294
 H    -6.195476     6.556794     4.946006
 O    -5.721017     7.356563     4.652946
 H    -5.599120     7.259918     3.682384
 H    -7.180637     4.580821     6.184028
 O    -6.903859     4.991411     5.355239
 H    -6.698249     4.248853     4.764463
 H    -6.740551     9.896864     2.455527
 O    -6.483556     10.269502     1.587320
 H    -6.911428     11.124737     1.532960
 H    -6.323196    -6.629525     1.859031
 O    -6.896189    -5.993345     1.390701
 H    -6.282648    -5.630438     0.706186
 H    -3.918932    -4.419023     7.719209
 O    -4.196423    -5.253506     7.300032
 H    -3.421382    -5.568135     6.820416
 H     9.611045     0.393257    -0.589048
 O     9.705427     1.344100    -0.780947
 H     10.011773     1.390475    -1.692694
 H    -8.098253    -3.750597     3.367937
 O    -7.189274    -4.069408     3.359211
 H    -7.108508    -4.713613     2.629725
 H     1.022745    -2.258807     6.946803
 O     1.487771    -3.020061     7.310583
 H     1.668125    -3.607289     6.559872
 H    -3.582909    -2.725111    -6.754103
 O    -4.018267    -3.329679    -6.135403
 H    -4.960951    -3.155561    -6.207594
 H    -8.219351     8.860614     3.882227
 O    -7.402980     9.353911     3.975244
 H    -6.752787     8.729672     4.360906
 H     7.910178    -2.501513    -5.176831
 O     6.998530    -2.205861    -5.196131
 H     6.504843    -2.820071    -4.620649
 H    -5.053150    -4.584539     5.886486
 O    -5.075730    -4.007843     5.097609
 H    -5.853115    -4.225147     4.563769
 N    -7.245739    -8.192607    -1.348296
 H    -6.338423    -8.306424    -1.792348
 H    -7.568739    -9.122717    -1.097876
 H    -7.083165    -7.694103    -0.475489
