604
grain_mol49 // -1645.752283944656 // -45.0498688383 // -668.024536802956 // -1022.77761598 // -0.044946405 // -0.583879530563 // -0.012573191956
 H    -1.798753    -0.058803     2.491789
 O    -0.819890    -0.049544     2.561032
 H    -0.557986    -0.945921     2.878257
 H    -0.519591    -1.837977    -2.870235
 O    -0.582252    -1.859406    -1.902808
 H    -1.525650    -1.749443    -1.697399
 H    -2.740372     1.867854     0.890726
 O    -2.664839     1.228370     0.162650
 H    -1.879055     1.498549    -0.346253
 H    -3.775615     2.009859    -2.968225
 O    -3.263044     2.348993    -3.739052
 H    -2.353570     2.462106    -3.443756
 H    -0.175505    -0.625565    -0.804964
 O    -0.028452     0.099716    -0.167513
 H    -0.452189    -0.181816     0.653932
 H     0.810216    -1.920212    -4.813413
 O    -0.129061    -2.083901    -4.627084
 H    -0.241984    -3.045602    -4.664694
 H    -4.948982     2.499082    -1.209334
 O    -4.603284     1.667507    -1.588163
 H    -3.925947     1.373430    -0.933671
 H    -3.497044     3.422183     2.550568
 O    -2.789970     2.789435     2.319702
 H    -2.005461     3.115934     2.797706
 H     2.481234     0.220850    -2.969300
 O     1.868302    -0.402948    -2.529283
 H     0.969462    -0.073593    -2.722307
 H    -1.217887     0.357806    -3.584533
 O    -0.399004     0.820060    -3.309614
 H    -0.626768     1.419626    -2.579981
 H     2.622451    -0.643398     0.534583
 O     2.506836    -1.385664    -0.094551
 H     2.241274    -0.994109    -0.948440
 H    -2.911357    -0.413990    -0.563215
 O    -3.067099    -0.869919    -1.401008
 H    -3.881408    -1.398751    -1.317621
 H     2.792465     1.194353    -0.828620
 O     1.984173     1.723054    -0.704684
 H     1.258355     1.089621    -0.522124
 H     0.553036     3.180311    -3.231938
 O     1.470132     2.976060    -3.006733
 H     1.473656     2.512699    -2.149264
 H    -0.010999    -3.997511    -0.569141
 O    -0.264707    -4.677850    -1.233183
 H    -1.053160    -5.115314    -0.838013
 H    -6.209703     2.251146     3.093846
 O    -6.252659     2.451328     4.065586
 H    -7.010167     1.938436     4.409878
 H     1.029430    -3.756050     1.273666
 O     0.623029    -3.099099     0.679360
 H     1.313858    -2.454274     0.423705
 H    -2.840963     5.283209    -0.945564
 O    -2.671545     4.480647    -0.417287
 H    -3.564916     4.132112    -0.215768
 H    -5.560702    -1.164150     1.740106
 O    -5.282638    -0.532042     1.043334
 H    -5.409158    -0.987203     0.205436
 H    -0.421648    -3.211403     3.031328
 O    -0.090390    -2.408287     3.467687
 H     0.853547    -2.328561     3.252633
 H     5.212952     0.909791    -1.221808
 O     4.416490     0.397461    -1.017448
 H     4.645815    -0.019831    -0.156940
 H     0.750277     2.370188     1.051258
 O     0.744456     2.030852     1.955530
 H     0.118877     1.285648     2.010684
 H     4.367207    -0.595750    -2.379738
 O     4.546608    -1.084625    -3.215230
 H     5.037954    -0.449049    -3.776522
 H     3.063931     3.189077    -1.018599
 O     3.949631     3.574865    -1.008791
 H     4.419467     3.270648    -1.808078
 H    -5.974926    -1.370222    -1.841972
 O    -5.456118    -2.082467    -1.408916
 H    -5.393391    -2.799636    -2.063260
 H    -5.033637    -3.965908     1.281817
 O    -5.710646    -3.319351     1.007292
 H    -5.483278    -3.039181     0.110536
 H     2.674724     2.094290    -3.686668
 O     3.331287     1.400102    -3.901381
 H     3.390294     1.363240    -4.861595
 H    -5.073946     3.947202     3.806297
 O    -4.495416     4.523691     3.295968
 H    -3.949985     5.043021     3.924748
 H     0.566167     0.999851    -4.733308
 O     1.045005     0.874983    -5.578485
 H     1.635225     0.107835    -5.427255
 H     1.090125     5.765468    -2.280621
 O     1.880516     5.420682    -1.831200
 H     2.416965     4.961845    -2.507541
 H    -2.930092    -3.419763    -1.773416
 O    -3.074069    -3.670489    -0.845186
 H    -3.851013    -4.246042    -0.808971
 H     2.103637     5.127662    -4.544226
 O     1.226237     5.237340    -4.950304
 H     1.191333     4.542459    -5.634867
 H     7.780806     1.557089    -0.964152
 O     6.961390     1.309925    -1.431443
 H     7.298580     0.634206    -2.060385
 H     4.521574     2.669516     0.304519
 O     4.844528     2.293144     1.146653
 H     4.820615     3.045699     1.773076
 H     0.926118    -3.201191    -2.207392
 O     1.782775    -3.065956    -2.638297
 H     1.891482    -2.092051    -2.667088
 H     1.237497     4.572200    -0.593428
 O     0.776181     4.108978     0.141997
 H     0.116748     4.732547     0.495175
 H    -5.750842     1.104572     1.306073
 O    -6.216260     1.942141     1.503467
 H    -7.156411     1.726414     1.276054
 H    -2.374276    -2.604602     0.270926
 O    -1.877745    -2.046041     0.899294
 H    -0.976754    -2.409240     0.885379
 H    -3.682491    -0.307423     4.306076
 O    -3.667324    -0.444014     5.280927
 H    -4.430665    -1.007307     5.542855
 H    -6.133684    -2.770028     3.270223
 O    -5.669826    -1.920684     3.356347
 H    -4.722331    -2.167889     3.342952
 H    -2.945248    -0.340994    -2.973987
 O    -2.695111    -0.408246    -3.922543
 H    -2.559682    -1.378465    -4.005012
 H    -3.602040    -3.319506    -3.703688
 O    -2.731007    -2.958061    -3.468684
 H    -2.056383    -3.607976    -3.747970
 H     3.103591    -1.225992    -4.314751
 O     2.539735    -1.332052    -5.104949
 H     3.160901    -1.509070    -5.829716
 H     4.608917     2.255649    -6.665182
 O     4.060579     1.444664    -6.677070
 H     3.223724     1.699855    -7.074115
 H    -4.141401     0.999011     5.829211
 O    -4.602627     1.833762     6.100042
 H    -5.170423     2.072419     5.339560
 H    -3.973140    -0.041710     2.039987
 O    -3.419796     0.256436     2.782035
 H    -3.316402     1.226499     2.703891
 H    -5.853830     0.696442    -2.181934
 O    -6.416135     0.046052    -2.651368
 H    -6.000624    -0.054299    -3.529642
 H     1.715982    -3.853574    -4.180630
 O     1.639599    -4.307185    -5.042949
 H     1.220602    -5.161376    -4.849181
 H     4.344266    -3.671402    -0.731703
 O     4.646318    -2.929866    -0.162069
 H     3.897076    -2.288490    -0.152500
 H    -0.232358     3.016162    -0.881273
 O    -0.994461     2.659064    -1.367701
 H    -1.692954     3.331172    -1.225235
 H     1.834097     4.329304     1.565207
 O     2.298279     4.450879     2.413291
 H     2.100553     3.661051     2.940461
 H     3.702985     1.069323     1.601650
 O     2.921528     0.503802     1.765731
 H     2.164270     1.104113     1.907013
 H     2.989850    -4.029996    -2.153408
 O     3.680370    -4.673460    -1.858865
 H     4.351098    -4.683141    -2.559605
 H     4.794718    -3.870800    -4.621515
 O     5.240607    -3.573985    -3.790882
 H     4.858793    -2.708366    -3.538722
 H    -0.984359     5.046648     2.160404
 O    -1.160936     5.610811     1.371388
 H    -1.812823     5.131781     0.797655
 H    -5.654026     3.279799     0.563654
 O    -5.200135     3.777676    -0.142845
 H    -5.634557     4.643964    -0.284205
 H     4.926067    -4.002290     2.823495
 O     4.170632    -3.804873     2.263536
 H     4.498733    -3.516242     1.382272
 H     5.786495    -1.439384     1.252676
 O     5.405791    -0.539281     1.253109
 H     6.195587     0.030423     1.296812
 H     1.383417    -6.709358    -3.129123
 O     1.186526    -6.915640    -4.068339
 H     2.054760    -7.005391    -4.487985
 H    -7.315679    -3.487038     0.830410
 O    -8.285481    -3.459426     0.640689
 H    -8.730920    -3.264740     1.493895
 H     3.169174    -2.535938     2.732212
 O     2.500265    -1.854784     2.933360
 H     2.734450    -1.049229     2.437206
 H    -1.841861     2.664257     5.135832
 O    -2.543541     3.321675     5.298194
 H    -3.290016     2.830167     5.690174
 H    -0.789976     0.870502     4.001793
 O    -0.647935     1.413353     4.809565
 H     0.199513     1.849594     4.669902
 H     0.216781     3.480539    -6.907753
 O     1.168268     3.260902    -6.799710
 H     1.171823     2.406234    -6.328191
 H     7.098317    -3.057598     4.583319
 O     6.328943    -3.489935     4.140380
 H     5.535803    -3.123413     4.598793
 H     8.722334     0.916674     1.799493
 O     7.989375     0.240593     1.728951
 H     8.343245    -0.432305     1.108052
 H    -4.193626    -0.381124    -4.623078
 O    -5.126957    -0.399102    -4.947504
 H    -5.117280    -0.017371    -5.846538
 H     6.342805    -1.537784    -2.274172
 O     6.747140    -2.031727    -1.555713
 H     6.019784    -2.285968    -0.956626
 H     4.690660    -0.982753     4.358043
 O     5.107542    -0.239563     3.891373
 H     5.048731    -0.394242     2.924981
 H     0.044095     3.269549     2.903277
 O    -0.566293     3.934193     3.281430
 H    -0.239609     4.179799     4.168538
 H     8.155015    -1.432321    -0.839721
 O     8.940143    -1.113600    -0.338357
 H     9.606737    -1.808858    -0.462900
 H     9.509000    -4.030461     1.977759
 O     9.206657    -3.828611     1.065667
 H     9.968595    -3.676873     0.496091
 H    -2.451228    -2.594018     3.847327
 O    -3.085197    -2.661707     3.123401
 H    -2.632317    -2.336081     2.305037
 H    -2.262333     0.863465    -6.251288
 O    -2.875248     1.624499    -6.277021
 H    -3.112720     1.805467    -5.343723
 H    -1.259711     3.902242    -5.467339
 O    -1.394551     3.878278    -6.443334
 H    -2.002255     3.130593    -6.585503
 H    -4.788552    -6.141437    -1.156844
 O    -5.240296    -5.387674    -0.748659
 H    -6.012132    -5.192422    -1.322489
 H     2.494232    -5.838372    -1.591270
 O     1.679086    -6.371980    -1.500481
 H     0.929523    -5.727691    -1.373175
 H     3.086672    -4.279553    -5.730701
 O     4.043428    -4.290056    -6.009393
 H     4.165084    -3.549831    -6.610083
 H     7.380812     3.484593     1.904582
 O     7.363107     3.158396     0.991733
 H     6.534995     2.630202     0.978159
 H     6.512766    -4.000473     0.208165
 O     6.981264    -4.818898    -0.026562
 H     7.876420    -4.678830     0.339949
 H    -7.659401    -4.254811    -2.416439
 O    -7.446866    -5.190798    -2.204587
 H    -8.064603    -5.455081    -1.496179
 H    -4.223892     6.819513     5.023080
 O    -3.347313     6.468148     4.777029
 H    -2.859036     6.244826     5.584176
 H     7.341447     3.392030     4.760042
 O     7.365503     2.985193     3.878678
 H     7.530555     2.028779     4.052411
 H    -5.737478     0.947829     7.005758
 O    -6.514560     0.419525     7.302211
 H    -6.259872    -0.506820     7.156730
 H    -0.649009    -4.831223    -2.949186
 O    -0.825902    -4.724138    -3.901548
 H    -1.437733    -5.420672    -4.172654
 H     6.691546     0.058448     4.359050
 O     7.666033     0.206449     4.266981
 H     7.807248     0.078612     3.276633
 H     4.582449    -6.696937    -4.001460
 O     3.877560    -6.855722    -4.665746
 H     4.007789    -6.184615    -5.343993
 H    -6.056091    -1.723982    -5.199110
 O    -6.688704    -2.474500    -5.308766
 H    -7.536414    -2.034268    -5.576692
 H    -7.618055     0.746414     6.105455
 O    -8.182003     1.095485     5.369528
 H    -8.776018     1.732310     5.770237
 H    -5.125152     5.825342     2.384742
 O    -5.346502     6.744208     2.129652
 H    -4.480026     7.200982     2.104509
 H     5.719876     1.514262    -4.075778
 O     5.934271     0.731996    -4.629053
 H     5.432412     0.841348    -5.439276
 H    -5.773240     6.566116     0.481493
 O    -5.816038     6.348286    -0.473115
 H    -4.925877     6.569582    -0.819777
 H    -0.495617    -7.419135    -3.206363
 O    -1.190399    -7.534693    -2.547792
 H    -0.789911    -7.894179    -1.747451
 H    -2.534999    -1.596019     5.528310
 O    -1.895433    -2.336516     5.656892
 H    -1.050295    -1.887501     5.847537
 H     7.367181    -4.634662    -1.689223
 O     7.473289    -4.620141    -2.664581
 H     6.706160    -4.122128    -2.996549
 H    -8.966765    -2.730436    -3.207850
 O    -8.039867    -2.670124    -2.881237
 H    -7.501068    -2.486063    -3.665765
 H     8.678081    -3.458861    -3.056143
 O     9.322294    -2.746104    -3.252701
 H     8.839723    -1.906589    -3.144902
 H    -5.274266    -4.834987    -3.569048
 O    -5.216919    -3.873745    -3.434315
 H    -5.737974    -3.465708    -4.136856
 H    -3.660347     4.107050    -3.466846
 O    -3.348613     4.952667    -3.105347
 H    -3.629363     5.660116    -3.687059
 H    -0.247268     4.775122    -4.023543
 O    -0.915327     4.095375    -3.823707
 H    -1.684756     4.553195    -3.429073
 H    -2.004963    -4.090331     5.341446
 O    -2.319486    -4.942952     5.002075
 H    -3.252280    -4.778255     4.778473
 H    -2.329937     8.454473    -3.675658
 O    -2.554524     7.507807    -3.784891
 H    -2.372317     7.273582    -4.721604
 H    -2.842514     7.341391     3.310869
 O    -2.777932     7.541854     2.362033
 H    -2.198306     6.841883     1.997885
 H     4.847126     1.425202     4.121389
 O     4.711662     2.385078     3.966202
 H     5.588633     2.726373     3.707962
 H     7.876135    -1.977796     6.120691
 O     8.303434    -2.177911     5.265332
 H     8.264413    -1.322333     4.789467
 H     6.043661    -1.694091     7.660927
 O     6.754545    -1.184037     7.260340
 H     6.306667    -0.419884     6.833291
 H    -1.752998     5.721067    -6.418242
 O    -1.866627     6.662981    -6.218304
 H    -0.988898     7.071453    -6.323964
 H    -8.190191    -0.063770     4.043346
 O    -8.026746    -0.598833     3.253932
 H    -7.128189    -0.964580     3.341007
 H    -8.556802     0.293859     0.296693
 O    -8.565011     0.930016     1.031052
 H    -8.538049     0.380667     1.832996
 H     0.852806    -0.608994     5.879717
 O     0.024961    -0.669718     6.411681
 H    -0.466233     0.115415     6.113298
 H    -0.392829     7.022001    -1.625603
 O    -0.369796     6.641298    -2.526490
 H    -1.226347     6.859537    -2.958022
 H     0.385280    -8.048943     0.517722
 O    -0.528691    -8.276836     0.288744
 H    -0.970001    -8.335277     1.163891
 H     2.089348     2.585654     5.216225
 O     2.081516     2.308867     4.275616
 H     3.019410     2.315609     4.010225
 H    -8.204178    -5.318583    -5.453925
 O    -7.309720    -5.192186    -5.810884
 H    -7.136430    -4.243388    -5.753756
 H     2.859604    -7.655197     0.968209
 O     1.979893    -7.271166     0.936752
 H     1.891782    -6.929544     0.009812
 H     3.294375     5.651943    -7.441799
 O     3.426116     4.688279    -7.570235
 H     2.591144     4.253976    -7.336497
 H    -0.418143     6.975022     0.544440
 O    -0.106224     7.677425    -0.050801
 H    -0.766796     8.381861     0.013466
 H     4.529136     3.521989     5.169674
 O     4.464893     4.166807     5.915811
 H     5.352887     4.209584     6.280279
 H     7.740614     2.595683     6.704538
 O     7.229295     3.445824     6.640547
 H     7.732525     4.091821     7.134762
 H     3.830239    -8.090598    -1.135367
 O     4.368280    -7.570381    -0.516246
 H     4.815988    -6.930149    -1.092804
 H     6.512075    -6.078194    -2.813909
 O     5.732673    -6.661954    -2.757746
 H     6.052786    -7.580012    -2.698365
 H    -9.046801    -1.965769     3.097718
 O    -9.551159    -2.773223     2.863389
 H    -10.288907    -2.450582     2.318334
 H    -2.536084     8.781748     1.072073
 O    -2.399105     9.140111     0.179289
 H    -3.186266     9.718117     0.022038
 H     8.156010     0.440664     7.232654
 O     8.507833     1.131665     6.660906
 H     8.335049     0.813274     5.756918
 H    -2.215108     5.109609     7.708980
 O    -1.941831     5.326957     6.818879
 H    -2.156695     4.527444     6.251295
 H    -6.519952    -6.270371    -3.283093
 O    -5.864884    -6.476260    -3.974742
 H    -6.310809    -6.177662    -4.796676
 H     6.710806    -2.953558     2.568349
 O     6.826684    -2.694176     1.635005
 H     7.769496    -2.788553     1.436027
 H     2.401814     6.649336    -0.844977
 O     2.678686     7.382410    -0.250537
 H     1.845958     7.733995     0.087688
 H    -4.431816    -7.255193    -2.869606
 O    -3.860558    -7.315108    -2.095277
 H    -2.957586    -7.453215    -2.433662
 H     0.891556     6.703155    -5.624928
 O     0.731443     7.580529    -6.044407
 H     0.771439     8.209233    -5.294292
 H    -8.383166    -1.464276    -1.571208
 O    -8.658130    -1.194019    -0.681288
 H    -8.437591    -1.989110    -0.145574
 H    -3.204620     7.183146    -2.124975
 O    -3.293893     7.001473    -1.179714
 H    -2.968636     7.795573    -0.705953
 H     2.701986    -4.644527     2.253755
 O     1.780041    -4.968721     2.270612
 H     1.813336    -5.858180     1.862068
 H    -8.959529    -0.556208    -4.920260
 O    -8.893396    -1.131482    -5.717944
 H    -8.604924    -0.534782    -6.431019
 H     7.432951    -0.194415    -4.003613
 O     8.091756    -0.244870    -3.291621
 H     8.772082     0.406286    -3.511523
 H     4.298373     6.576098    -0.122177
 O     4.991982     5.930270    -0.330690
 H     4.516119     5.099958    -0.555440
 H    -8.046346     0.324728    -3.110832
 O    -8.948245     0.361000    -3.491455
 H    -9.546669     0.135954    -2.777734
 H     6.103914     3.673272    -3.354840
 O     5.621023     2.893122    -3.022937
 H     6.206582     2.462295    -2.360992
 H    -1.532222    -6.903267     0.079977
 O    -2.133768    -6.148373    -0.083245
 H    -2.743196    -6.438044    -0.769052
 H    -4.161998    -7.728729     1.009384
 O    -4.372000    -7.471889     1.910280
 H    -4.136148    -6.515572     1.975464
 H    -3.009779    -5.047832     1.181359
 O    -3.710388    -4.917387     1.840917
 H    -3.403530    -4.208788     2.442383
 H     5.136716    -6.346789     4.707448
 O     4.380119    -6.086907     4.178486
 H     4.662533    -6.179427     3.253140
 H    -9.801222    -5.996876    -3.800586
 O    -9.817717    -5.533452    -4.669420
 H    -10.475005    -5.988248    -5.196449
 H     6.119573    -5.818182     1.088915
 O     5.602619    -6.400532     1.682945
 H     5.126675    -6.978911     1.075199
 H    -1.530153    -6.744067     2.554510
 O    -1.691414    -7.701335     2.606726
 H    -2.654207    -7.804221     2.612893
 H    -10.268360    -3.818634    -4.366932
 O    -10.373911    -2.891363    -4.095071
 H    -10.139588    -2.343621    -4.856582
 H     0.532764     7.941095    -3.240371
 O     0.865419     8.770342    -3.643178
 H     1.773774     8.890403    -3.295907
 H    -9.355465    -7.763367    -2.430165
 O    -9.927650    -6.994597    -2.421625
 H    -9.788150    -6.566404    -1.557611
 H     2.100681     0.573238     4.541705
 O     2.182274    -0.281834     5.005788
 H     2.372309    -0.963187     4.326700
 H    -6.693981     0.541833    -7.512237
 O    -7.649200     0.647994    -7.372032
 H    -7.781005     1.552085    -7.083919
 H     6.168909     3.766097    -7.361117
 O     5.587812     3.712746    -6.602396
 H     4.747863     4.190661    -6.883081
 H    -5.166897     10.378126     0.744929
 O    -4.686019     10.391183    -0.093421
 H    -5.289580     9.922541    -0.703101
 H    -0.954346    -1.098532    -5.755516
 O    -1.112796    -0.437270    -6.463844
 H    -0.315265     0.124670    -6.419212
 H     4.592151    -0.537469    -7.012453
 O     4.658970    -1.473371    -6.794456
 H     5.508752    -1.592053    -6.334460
 H     2.251502    -8.904010    -2.695202
 O     3.209663    -8.853740    -2.703086
 H     3.440267    -8.269817    -3.440788
 H    -4.397903    -0.340742    -7.830742
 O    -4.886798     0.422676    -7.487458
 H    -4.189984     1.048116    -7.183512
 H     1.451812     3.668171     6.660893
 O     2.187498     3.057045     6.860487
 H     3.010481     3.563050     6.728066
 H    -11.444770    -2.418655     0.145399
 O    -11.006914    -1.794783     0.724736
 H    -10.272848    -1.417168     0.208693
 H    -7.328897     2.120528     7.696695
 O    -7.785375     2.970864     7.621648
 H    -7.885117     3.308254     8.511306
 H     5.931368    -9.195375    -1.266224
 O     5.999841    -9.313352    -2.218648
 H     5.106240    -9.519211    -2.520492
 H     6.686751     5.326413    -1.008008
 O     7.263524     4.579047    -1.215211
 H     7.318488     4.102089    -0.343514
 H    -5.403160    -2.766942     5.901012
 O    -5.393708    -2.005195     6.521744
 H    -4.762968    -2.272990     7.212394
 H     2.681892     1.392792     7.441377
 O     3.129832     0.539940     7.348166
 H     2.791634     0.162885     6.508709
 H    -2.726707    -2.823007     7.078101
 O    -3.206266    -2.948041     7.925461
 H    -2.569931    -2.634442     8.584433
 H     5.851102     1.883614     6.594095
 O     5.541558     1.015438     6.329549
 H     4.657810     0.884714     6.732609
 H     1.889969    -4.421926     4.088759
 O     2.384034    -4.371750     4.919784
 H     3.067622    -5.058469     4.826461
 H     10.295074    -2.954831    -1.938139
 O     10.802502    -2.978099    -1.081613
 H     11.728975    -2.968413    -1.316047
 H     3.964738     8.187656    -2.912783
 O     3.302908     8.776416    -2.529374
 H     3.131998     8.427322    -1.635458
 H    -8.341059    -6.308914     0.472498
 O    -8.985977    -5.872034    -0.107174
 H    -8.908767    -4.924472     0.163571
 H    -0.622370     9.679135    -3.228515
 O    -1.554135     9.864380    -3.004503
 H    -1.605818     9.982689    -2.053556
 H     4.104463     3.916665    -3.803920
 O     3.569641     4.715831    -3.820090
 H     4.150021     5.478013    -3.614096
 H     5.227844     6.470660    -2.010824
 O     5.153693     6.683191    -2.961946
 H     5.923113     6.308913    -3.410058
 H    -0.253434     5.167922     6.109404
 O     0.450260     4.675324     5.663974
 H     1.152184     5.303531     5.367396
 H     3.326528     5.473200     5.126289
 O     2.567777     5.931748     4.735545
 H     2.496901     5.603770     3.824961
 H    -7.045392     9.115657    -0.056398
 O    -6.771257     8.887302    -0.954358
 H    -6.558542     7.937682    -0.930380
 H    -1.416480    -5.023860     3.595339
 O    -0.978623    -4.941961     2.717473
 H    -0.064263    -5.224913     2.802080
 H     4.215912    -2.256991     6.189781
 O     4.200083    -2.410721     5.220821
 H     3.470039    -3.041909     5.056816
 H     6.970253    -6.331092     3.080124
 O     7.365742    -5.975421     3.885842
 H     6.911085    -5.126760     4.044923
 H     8.928302    -5.037334     3.797730
 O     9.574816    -4.320453     3.655470
 H     9.328718    -3.615265     4.266997
 H     3.066704     7.868705    -8.069818
 O     3.069735     7.330337    -7.279719
 H     2.206548     7.498584    -6.829186
 H    -0.568436    -1.328609     8.124338
 O    -0.780299    -1.960933     8.825328
 H    -0.084104    -2.622931     8.789541
 H     8.370062     4.308829    -2.362434
 O     9.045865     4.308221    -3.090970
 H     9.781790     4.813991    -2.746623
 H     6.361525     4.548300    -5.236174
 O     6.703371     4.936532    -4.409279
 H     7.647822     4.757556    -4.335721
 H     10.585400     1.932141    -4.310179
 O     9.853714     1.833511    -3.703632
 H     9.498407     2.732332    -3.518686
 H     3.146897    -2.514198     7.855715
 O     3.990176    -2.020914     7.848447
 H     3.733731    -1.089596     7.929763
 H    -2.624733    -1.924196    -8.739918
 O    -3.016503    -1.585523    -7.935887
 H    -2.295971    -1.146122    -7.434428
 H     5.183974     5.267187     1.489997
 O     4.972758     4.720199     2.256672
 H     4.005530     4.764451     2.364375
 H    -3.992992    -6.238485    -4.768172
 O    -3.176388    -5.742356    -4.859419
 H    -3.397475    -4.960635    -5.390163
 H    -6.424152     6.281033     5.034385
 O    -5.975289     7.096718     4.744821
 H    -5.857645     7.011660     3.772647
 H    -7.342834     4.267486     6.262589
 O    -7.085177     4.692907     5.435109
 H    -6.862393     3.961534     4.836585
 H    -7.083093     9.625495     2.578118
 O    -6.843876     10.012813     1.711231
 H    -7.295748     10.856253     1.668117
 H    -6.129748    -6.839143     1.795166
 O    -6.735968    -6.196128     1.395485
 H    -6.199265    -5.764311     0.696742
 H    -3.814346    -4.648751     7.693659
 O    -4.071640    -5.487725     7.270779
 H    -3.293143    -5.775838     6.780173
 H     9.606685     0.499745    -0.776218
 O     9.790370     1.455082    -0.904858
 H     9.998513     1.523047    -1.848971
 H    -8.048982    -4.058098     3.386219
 O    -7.128750    -4.340840     3.376129
 H    -7.024191    -4.983737     2.645635
 H     1.057048    -2.342528     6.902191
 O     1.545807    -3.093585     7.255939
 H     1.736728    -3.668991     6.498666
 H    -3.640755    -2.823112    -6.765382
 O    -4.058198    -3.442258    -6.148552
 H    -5.004998    -3.291416    -6.216786
 H    -8.520493     8.535589     4.006895
 O    -7.717826     9.051214     4.098064
 H    -7.047041     8.442218     4.472891
 H     7.852706    -2.285664    -5.274074
 O     6.933119    -2.015429    -5.284704
 H     6.460718    -2.647502    -4.710636
 H    -4.958558    -4.831149     5.868579
 O    -5.003356    -4.246512     5.086797
 H    -5.779200    -4.479669     4.556852
 N     10.033079     2.041807     2.107819
 H     10.219153     2.361816     1.161681
 H     10.908438     1.746561     2.525344
 H     9.665315     2.815676     2.652213
