604
grain_mol79 // -1360.33940068061 // -24.7434263726 // -362.29818138321 // -1022.78464567 // -0.0174533545 // -0.582220087296 // -0.004203306771
 H    -1.625159     0.168894     2.570962
 O    -0.645045     0.144890     2.617853
 H    -0.408619    -0.744858     2.971798
 H    -0.545640    -1.913228    -2.725084
 O    -0.584241    -1.884748    -1.756562
 H    -1.517976    -1.730854    -1.535131
 H    -2.535547     2.050236     0.899978
 O    -2.500681     1.373529     0.203251
 H    -1.719366     1.589611    -0.337143
 H    -3.660825     2.044904    -2.936961
 O    -3.155240     2.328164    -3.734605
 H    -2.235141     2.419649    -3.466152
 H    -0.106381    -0.616322    -0.730836
 O     0.084674     0.131778    -0.132352
 H    -0.330828    -0.093286     0.710450
 H     0.732016    -2.139468    -4.692505
 O    -0.207447    -2.257828    -4.476001
 H    -0.357500    -3.215171    -4.463913
 H    -4.771041     2.662209    -1.176911
 O    -4.464483     1.801571    -1.522779
 H    -3.783301     1.513041    -0.870137
 H    -3.194068     3.709653     2.498426
 O    -2.515976     3.040857     2.282703
 H    -1.708881     3.360178     2.726415
 H     2.524597     0.024820    -2.994859
 O     1.901333    -0.553385    -2.509526
 H     1.010021    -0.201306    -2.698173
 H    -1.180360     0.269529    -3.529908
 O    -0.338455     0.713922    -3.296820
 H    -0.526871     1.356052    -2.592740
 H     2.721095    -0.674630     0.542878
 O     2.564584    -1.441355    -0.046064
 H     2.290708    -1.082383    -0.911645
 H    -2.826450    -0.291911    -0.435770
 O    -3.018184    -0.780968    -1.246843
 H    -3.849680    -1.273974    -1.120581
 H     2.923612     1.086934    -0.912719
 O     2.139608     1.651771    -0.793262
 H     1.395263     1.055403    -0.564985
 H     0.700282     3.038225    -3.357239
 O     1.614616     2.811113    -3.142415
 H     1.621333     2.389131    -2.264013
 H    -0.059088    -3.977111    -0.333398
 O    -0.352722    -4.678738    -0.957329
 H    -1.147200    -5.066820    -0.523996
 H    -5.933180     2.668470     3.160526
 O    -5.944457     2.917000     4.122107
 H    -6.711303     2.449981     4.508468
 H     1.035542    -3.686860     1.471005
 O     0.638961    -3.043848     0.855238
 H     1.346135    -2.439063     0.551833
 H    -2.557658     5.374174    -1.098870
 O    -2.404166     4.592536    -0.535510
 H    -3.304407     4.287750    -0.296560
 H    -5.442752    -0.829971     1.960700
 O    -5.158212    -0.242538     1.228440
 H    -5.322653    -0.731857     0.416623
 H    -0.351320    -3.003828     3.233120
 O     0.020377    -2.193589     3.621487
 H     0.960712    -2.160640     3.380621
 H     5.321110     0.697176    -1.344223
 O     4.513826     0.224038    -1.097007
 H     4.749300    -0.162795    -0.223969
 H     0.973328     2.427993     0.955340
 O     0.979469     2.131912     1.874699
 H     0.327626     1.415054     1.981175
 H     4.393737    -0.832631    -2.409016
 O     4.536659    -1.367743    -3.222631
 H     5.034153    -0.778310    -3.827066
 H     3.263688     3.059676    -1.206180
 O     4.164586     3.408240    -1.232406
 H     4.601936     3.051988    -2.029278
 H    -5.953473    -1.193679    -1.595185
 O    -5.447528    -1.901913    -1.140852
 H    -5.429854    -2.652247    -1.760330
 H    -5.029544    -3.668408     1.627957
 O    -5.687357    -3.008532     1.339500
 H    -5.474720    -2.782593     0.423878
 H     2.768655     1.852656    -3.806626
 O     3.394078     1.124739    -4.001992
 H     3.427474     1.039577    -4.960403
 H    -4.719403     4.352998     3.762552
 O    -4.132743     4.882313     3.211915
 H    -3.553616     5.410249     3.802105
 H     0.595959     0.788933    -4.749524
 O     1.050089     0.606634    -5.597960
 H     1.614454    -0.174761    -5.423461
 H     1.354099     5.644292    -2.545119
 O     2.142541     5.291567    -2.098166
 H     2.644294     4.781468    -2.764403
 H    -2.984302    -3.348625    -1.496836
 O    -3.112663    -3.549834    -0.554347
 H    -3.910062    -4.092114    -0.472152
 H     2.287321     4.860619    -4.798535
 O     1.404687     4.983648    -5.188960
 H     1.327176     4.258424    -5.837685
 H     7.894757     1.363033    -1.207710
 O     7.071457     1.029989    -1.609488
 H     7.368772     0.298798    -2.188127
 H     4.736736     2.549582     0.103834
 O     5.079647     2.210223     0.955503
 H     5.073677     2.989760     1.549068
 H     0.865679    -3.296644    -2.030287
 O     1.716239    -3.214038    -2.486058
 H     1.858734    -2.247456    -2.565488
 H     1.499651     4.528937    -0.805755
 O     1.041855     4.119724    -0.036855
 H     0.412828     4.783087     0.299251
 H    -5.560840     1.420823     1.421217
 O    -5.990394     2.283886     1.588187
 H    -6.943220     2.092374     1.392977
 H    -2.348476    -2.457537     0.491328
 O    -1.816027    -1.888471     1.079937
 H    -0.929825    -2.286039     1.063088
 H    -3.471190     0.077960     4.438321
 O    -3.436663    -0.011728     5.418144
 H    -4.213268    -0.532852     5.724776
 H    -6.035505    -2.337217     3.580792
 O    -5.538790    -1.502883     3.616162
 H    -4.601782    -1.786217     3.591469
 H    -2.916434    -0.332933    -2.846451
 O    -2.690314    -0.454866    -3.795556
 H    -2.595232    -1.432778    -3.833604
 H    -3.700410    -3.315647    -3.412606
 O    -2.810303    -2.976436    -3.217000
 H    -2.168068    -3.664195    -3.480475
 H     3.060729    -1.508157    -4.281037
 O     2.474324    -1.630377    -5.051967
 H     3.070163    -1.865429    -5.781446
 H     4.632799     1.798369    -6.833415
 O     4.055577     1.008666    -6.792510
 H     3.218841     1.275232    -7.182335
 H    -3.844545     1.472661     5.905631
 O    -4.267822     2.336494     6.145649
 H    -4.845700     2.559167     5.387860
 H    -3.808225     0.244727     2.169593
 O    -3.225512     0.557668     2.882720
 H    -3.089943     1.518295     2.754765
 H    -5.765114     0.849866    -2.039286
 O    -6.362007     0.199054    -2.462301
 H    -5.973360     0.040509    -3.344218
 H     1.582059    -4.072072    -3.986331
 O     1.469144    -4.563469    -4.823502
 H     1.022491    -5.390308    -4.579148
 H     4.300574    -3.823126    -0.612562
 O     4.643581    -3.066775    -0.087224
 H     3.918331    -2.398437    -0.091620
 H    -0.032179     3.017212    -0.983148
 O    -0.818292     2.665926    -1.433904
 H    -1.488624     3.369479    -1.308726
 H     2.140521     4.368402     1.347661
 O     2.633025     4.510494     2.176688
 H     2.415499     3.757035     2.747637
 H     3.891009     1.045686     1.500172
 O     3.094678     0.520303     1.710425
 H     2.361811     1.153711     1.838152
 H     2.898730    -4.198411    -1.982769
 O     3.573114    -4.851792    -1.672936
 H     4.224744    -4.921268    -2.388034
 H     4.646426    -4.226287    -4.497039
 O     5.123647    -3.906167    -3.692620
 H     4.778841    -3.016392    -3.474472
 H    -0.634796     5.218037     1.971319
 O    -0.809407     5.749421     1.159610
 H    -1.492919     5.268559     0.625246
 H    -5.403563     3.552204     0.571356
 O    -4.948466     3.999289    -0.167720
 H    -5.355704     4.872571    -0.342211
 H     4.957729    -4.005503     2.939906
 O     4.196571    -3.804583     2.389027
 H     4.512811    -3.572588     1.486938
 H     5.868426    -1.558981     1.226757
 O     5.522260    -0.645426     1.193203
 H     6.339839    -0.110524     1.189656
 H     1.172257    -6.859339    -2.789179
 O     0.945293    -7.103081    -3.712429
 H     1.799005    -7.245189    -4.146978
 H    -7.302517    -3.125363     1.207557
 O    -8.274803    -3.069731     1.039820
 H    -8.691669    -2.819275     1.892374
 H     3.253667    -2.479464     2.817931
 O     2.616113    -1.763936     3.001431
 H     2.866079    -0.993643     2.459880
 H    -1.504011     3.014839     5.079284
 O    -2.176612     3.705575     5.225366
 H    -2.931034     3.261932     5.657446
 H    -0.546621     1.130446     4.010341
 O    -0.364561     1.705815     4.787132
 H     0.494163     2.103102     4.606486
 H     0.283427     3.173998    -7.034085
 O     1.228833     2.924447    -6.937324
 H     1.212927     2.093789    -6.424928
 H     7.205159    -3.059698     4.602028
 O     6.409973    -3.482361     4.198467
 H     5.642240    -3.064466     4.656391
 H     8.180388     1.088259     1.091036
 O     8.053374     0.178638     1.420717
 H     8.483211    -0.428982     0.790433
 H    -4.205632    -0.403352    -4.462904
 O    -5.146579    -0.399395    -4.763234
 H    -5.146230    -0.064877    -5.680662
 H     6.335672    -1.849462    -2.303788
 O     6.745463    -2.304249    -1.562872
 H     6.022287    -2.511783    -0.941086
 H     4.874337    -0.904819     4.330740
 O     5.311650    -0.205705     3.816311
 H     5.213833    -0.404838     2.860924
 H     0.347181     3.440634     2.777241
 O    -0.228172     4.145939     3.135772
 H     0.128142     4.420929     4.002591
 H     8.193948    -1.696781    -0.923577
 O     9.018232    -1.351829    -0.514401
 H     9.674262    -2.058473    -0.587825
 H     9.514956    -4.244636     1.990712
 O     9.196654    -4.075674     1.077381
 H     9.949247    -3.978307     0.483831
 H    -2.335195    -2.272336     4.063694
 O    -2.989182    -2.350516     3.359003
 H    -2.545641    -2.082289     2.515121
 H    -2.272069     0.686112    -6.193372
 O    -2.856030     1.468428    -6.242293
 H    -3.065002     1.701911    -5.313850
 H    -1.140389     3.719343    -5.582484
 O    -1.299926     3.653790    -6.552750
 H    -1.937797     2.923287    -6.644065
 H    -4.925059    -5.965138    -0.705141
 O    -5.337188    -5.176370    -0.322264
 H    -6.117407    -4.979950    -0.886055
 H     2.351851    -5.957648    -1.321305
 O     1.520549    -6.455360    -1.185754
 H     0.797894    -5.778158    -1.073264
 H     2.897907    -4.623465    -5.544584
 O     3.846690    -4.682639    -5.844360
 H     3.979540    -3.977712    -6.483852
 H     7.808154     3.129216     1.677867
 O     7.672120     2.742185     0.803765
 H     6.723100     2.464920     0.797633
 H     6.478405    -4.187039     0.291607
 O     6.910689    -5.033074     0.087355
 H     7.819349    -4.908994     0.425716
 H    -7.756194    -4.036267    -1.991712
 O    -7.565956    -4.964663    -1.730180
 H    -8.184225    -5.173116    -1.004421
 H    -3.735193     7.246681     4.817697
 O    -2.878151     6.851429     4.569254
 H    -2.378638     6.649027     5.375009
 H     7.702632     3.342318     4.445853
 O     7.645866     2.907306     3.585033
 H     7.849994     1.967319     3.751619
 H    -5.411345     1.538028     7.120106
 O    -6.199368     1.054240     7.460239
 H    -5.982541     0.113024     7.353870
 H    -0.786285    -4.900237    -2.655047
 O    -0.980891    -4.832642    -3.607472
 H    -1.626712    -5.515785    -3.830202
 H     6.940393     0.057534     4.109568
 O     7.917562     0.190117     4.024878
 H     8.092631     0.096678     3.061811
 H     4.347351    -7.008853    -3.734464
 O     3.621005    -7.172871    -4.373827
 H     3.758355    -6.540489    -5.086949
 H    -6.131070    -1.702047    -4.928865
 O    -6.787989    -2.435803    -4.989356
 H    -7.629190    -1.982898    -5.255640
 H    -7.319929     1.364478     6.274344
 O    -7.888665     1.699145     5.535533
 H    -8.449154     2.376155     5.918196
 H    -4.737256     6.161321     2.252684
 O    -4.931215     7.074656     1.958395
 H    -4.049648     7.496802     1.890786
 H     5.777664     1.143905    -4.239097
 O     5.950939     0.327133    -4.756148
 H     5.434163     0.414358    -5.559651
 H    -5.404992     6.833641     0.330922
 O    -5.479345     6.572351    -0.610709
 H    -4.590514     6.742682    -0.988055
 H    -0.732442    -7.500828    -2.788602
 O    -1.413980    -7.558431    -2.109015
 H    -1.007198    -7.894080    -1.301602
 H    -2.341473    -1.192311     5.695380
 O    -1.725956    -1.948978     5.845772
 H    -0.860681    -1.523337     5.994355
 H     7.261675    -4.943774    -1.590496
 O     7.343832    -4.979653    -2.567674
 H     6.586832    -4.470917    -2.906266
 H    -9.026605    -2.506113    -2.822695
 O    -8.088677    -2.458596    -2.520057
 H    -7.564892    -2.339090    -3.326416
 H     8.580481    -3.885393    -3.042851
 O     9.244890    -3.207739    -3.289534
 H     8.795846    -2.346761    -3.212124
 H    -5.424890    -4.759296    -3.165980
 O    -5.324070    -3.795431    -3.081793
 H    -5.851528    -3.402588    -3.788663
 H    -3.481233     4.109867    -3.539127
 O    -3.129800     4.959878    -3.227459
 H    -3.399941     5.648140    -3.836534
 H    -0.061410     4.622499    -4.206811
 O    -0.747881     3.978264    -3.958096
 H    -1.490909     4.482675    -3.569532
 H    -1.907480    -3.710590     5.618770
 O    -2.260762    -4.566358     5.329211
 H    -3.192190    -4.378031     5.118790
 H    -1.999278     8.389530    -3.991687
 O    -2.260355     7.447705    -4.049044
 H    -2.110670     7.162001    -4.977199
 H    -2.378680     7.633392     3.050875
 O    -2.330021     7.785650     2.092167
 H    -1.785827     7.047621     1.749341
 H     5.107592     1.477422     3.974413
 O     5.000202     2.432036     3.771401
 H     5.883598     2.731704     3.485037
 H     8.060520    -1.928498     6.065691
 O     8.458142    -2.187272     5.211393
 H     8.444892    -1.359110     4.691980
 H     6.279389    -1.509742     7.631900
 O     6.997130    -1.045335     7.190001
 H     6.565613    -0.286423     6.737520
 H    -1.590883     5.507621    -6.609587
 O    -1.664938     6.461709    -6.453461
 H    -0.775854     6.831266    -6.599400
 H    -7.971926     0.478098     4.268144
 O    -7.847599    -0.099540     3.502075
 H    -6.961377    -0.494856     3.586185
 H    -8.418431     0.668698     0.516811
 O    -8.384812     1.339352     1.219402
 H    -8.358635     0.828165     2.046155
 H     1.088134    -0.317293     5.920029
 O     0.272510    -0.320823     6.473560
 H    -0.197723     0.466388     6.148045
 H    -0.065541     6.985627    -1.918983
 O    -0.078235     6.561371    -2.800376
 H    -0.936791     6.790370    -3.222502
 H     0.217231    -7.983617     0.941571
 O    -0.709610    -8.188298     0.745037
 H    -1.131361    -8.187267     1.631736
 H     2.421661     2.793224     5.073375
 O     2.380141     2.472759     4.147487
 H     3.310649     2.430523     3.860939
 H    -8.358511    -5.222754    -4.968867
 O    -7.468928    -5.167820    -5.385955
 H    -7.266494    -4.218469    -5.372832
 H     2.714786    -7.661816     1.314163
 O     1.849372    -7.246446     1.284874
 H     1.749911    -6.947150     0.344484
 H     3.423957     5.200076    -7.744698
 O     3.517498     4.227054    -7.828495
 H     2.673163     3.836187    -7.554920
 H    -0.038630     7.043910     0.250526
 O     0.284350     7.704759    -0.385027
 H    -0.348577     8.435656    -0.340489
 H     4.892164     3.633913     4.925335
 O     4.870999     4.316714     5.638689
 H     5.768241     4.343187     5.981551
 H     8.104052     2.665280     6.431766
 O     7.621908     3.529362     6.337443
 H     8.164001     4.180703     6.781127
 H     3.616083    -8.233929    -0.786710
 O     4.188105    -7.705070    -0.206571
 H     4.644229    -7.110712    -0.824157
 H     6.327089    -6.406945    -2.623282
 O     5.528458    -6.957292    -2.520561
 H     5.816087    -7.882955    -2.423792
 H    -8.921035    -1.432859     3.436424
 O    -9.460896    -2.230907     3.255582
 H    -10.198185    -1.908388     2.709683
 H    -2.075573     8.952121     0.737731
 O    -1.947683     9.261813    -0.174395
 H    -2.717084     9.860600    -0.341654
 H     8.453067     0.518294     7.057350
 O     8.812255     1.169131     6.444557
 H     8.611314     0.813616     5.561533
 H    -1.723906     5.593962     7.537218
 O    -1.464356     5.757362     6.631600
 H    -1.722947     4.940250     6.108995
 H    -6.712939    -6.131160    -2.783412
 O    -6.080625    -6.393426    -3.476850
 H    -6.536601    -6.116405    -4.304140
 H     6.773424    -3.037831     2.592923
 O     6.875797    -2.825724     1.646320
 H     7.809136    -2.965726     1.429704
 H     2.732572     6.545968    -1.185971
 O     3.051548     7.294821    -0.633827
 H     2.240933     7.694259    -0.294778
 H    -4.652976    -7.170530    -2.368544
 O    -4.063632    -7.217684    -1.606523
 H    -3.175766    -7.404579    -1.960490
 H     1.106725     6.426840    -5.926574
 O     0.968531     7.288452    -6.384690
 H     1.049743     7.950539    -5.667371
 H    -8.356940    -1.184428    -1.265580
 O    -8.597291    -0.858825    -0.383607
 H    -8.393536    -1.635339     0.184890
 H    -2.881048     7.227687    -2.360954
 O    -2.953018     7.095250    -1.406083
 H    -2.587703     7.898595    -0.979548
 H     2.698774    -4.589323     2.454218
 O     1.766400    -4.877263     2.508650
 H     1.756698    -5.785879     2.143133
 H    -8.981884    -0.417825    -4.640603
 O    -8.954969    -1.030991    -5.411273
 H    -8.662548    -0.480075    -6.158155
 H     7.429595    -0.629496    -4.137753
 O     8.098479    -0.672956    -3.434909
 H     8.800766    -0.057006    -3.687420
 H     4.645722     6.434888    -0.504588
 O     5.309211     5.751638    -0.692428
 H     4.794406     4.933443    -0.870870
 H    -7.992520     0.516025    -2.898128
 O    -8.901459     0.573247    -3.258491
 H    -9.489319     0.394841    -2.523099
 H     6.258726     3.317087    -3.634777
 O     5.752282     2.575542    -3.254848
 H     6.339254     2.146648    -2.587875
 H    -1.668237    -6.789499     0.490871
 O    -2.245001    -6.020837     0.304916
 H    -2.882374    -6.319618    -0.351122
 H    -4.302877    -7.469400     1.520018
 O    -4.477484    -7.163414     2.413102
 H    -4.207628    -6.213944     2.425588
 H    -3.049465    -4.828680     1.534191
 O    -3.727142    -4.641480     2.203921
 H    -3.380508    -3.915939     2.761764
 H     5.129814    -6.262355     4.931608
 O     4.370906    -5.998070     4.408165
 H     4.625978    -6.146952     3.482236
 H    -9.961909    -5.791784    -3.274318
 O    -9.928460    -5.315057    -4.133450
 H    -10.661710    -5.682233    -4.685550
 H     6.041246    -5.944891     1.269853
 O     5.518003    -6.477753     1.903514
 H     5.006622    -7.066742     1.336044
 H    -1.598839    -6.511416     2.954422
 O    -1.792688    -7.458264     3.058337
 H    -2.758359    -7.524969     3.089452
 H    -10.331110    -3.595146    -3.910910
 O    -10.459460    -2.650961    -3.660648
 H    -10.224732    -2.140433    -4.452731
 H     0.852525     7.790529    -3.597799
 O     1.205073     8.586391    -4.048240
 H     2.125467     8.688927    -3.728352
 H    -9.561752    -7.506694    -1.718730
 O    -10.161232    -6.752272    -1.758715
 H    -9.970461    -6.266371    -0.931854
 H     2.343213     0.751347     4.497116
 O     2.407755    -0.082510     5.000535
 H     2.553913    -0.802895     4.351452
 H    -6.741642     0.472152    -7.334826
 O    -7.688795     0.622206    -7.181393
 H    -7.779871     1.542193    -6.930348
 H     6.229375     3.214007    -7.637640
 O     5.665727     3.219011    -6.864016
 H     4.836868     3.713903    -7.148650
 H    -4.653872     10.628460     0.393533
 O    -4.193812     10.583095    -0.455310
 H    -4.829057     10.108630    -1.027166
 H    -1.024764    -1.297262    -5.632306
 O    -1.175605    -0.665495    -6.368601
 H    -0.357539    -0.132353    -6.369764
 H     4.505770    -1.005970    -7.043315
 O     4.543896    -1.932016    -6.780909
 H     5.400094    -2.060683    -6.335834
 H     1.970638    -9.061591    -2.268066
 O     2.929518    -9.047674    -2.300574
 H     3.162567    -8.509078    -3.071238
 H    -4.488736    -0.511618    -7.662169
 O    -4.939954     0.286353    -7.347106
 H    -4.213391     0.898285    -7.089570
 H     1.860362     3.966669     6.477275
 O     2.578464     3.338724     6.688690
 H     3.415343     3.807505     6.514089
 H    -11.404310    -1.939996     0.566007
 O    -10.931920    -1.303362     1.102905
 H    -10.196739    -0.980507     0.552105
 H    -6.941687     2.801513     7.789004
 O    -7.368401     3.663974     7.683273
 H    -7.433692     4.046897     8.557554
 H     5.671771    -9.421861    -0.912137
 O     5.712207    -9.587815    -1.859004
 H     4.804469    -9.774326    -2.129680
 H     6.919948     4.816152    -1.224678
 O     7.509248     4.103385    -1.492502
 H     7.698554     3.597239    -0.676133
 H    -5.240238    -2.235129     6.190797
 O    -5.187372    -1.445430     6.773370
 H    -4.550013    -1.703606     7.461544
 H     3.026950     1.686950     7.339514
 O     3.442240     0.815004     7.276894
 H     3.068548     0.410468     6.465776
 H    -2.539050    -2.335235     7.307612
 O    -3.001380    -2.401243     8.171037
 H    -2.337907    -2.080361     8.798955
 H     6.188793     2.017958     6.398713
 O     5.841984     1.151171     6.179913
 H     4.964828     1.071010     6.610120
 H     1.941025    -4.247884     4.294786
 O     2.458029    -4.175445     5.110107
 H     3.112931    -4.891728     5.035218
 H     10.242139    -3.387581    -1.987554
 O     10.768870    -3.386170    -1.142574
 H     11.689206    -3.424264    -1.397175
 H     4.298711     7.923661    -3.361699
 O     3.668187     8.554243    -2.992411
 H     3.507285     8.255521    -2.078688
 H    -8.437386    -5.920901     1.016093
 O    -9.082156    -5.491100     0.431500
 H    -8.963400    -4.534693     0.648248
 H    -0.237886     9.569361    -3.644310
 O    -1.156400     9.800048    -3.408202
 H    -1.180159     9.965676    -2.463232
 H     4.260671     3.612633    -4.045853
 O     3.754524     4.429522    -4.088073
 H     4.367129     5.178433    -3.934075
 H     5.524001     6.204565    -2.404974
 O     5.431033     6.374253    -3.362715
 H     6.173918     5.951402    -3.812362
 H     0.197832     5.500580     5.892602
 O     0.872515     4.961726     5.455722
 H     1.588339     5.548875     5.112538
 H     3.761262     5.625425     4.812899
 O     3.010359     6.092359     4.417104
 H     2.904847     5.723694     3.525733
 H    -6.596531     9.400187    -0.301594
 O    -6.352988     9.119045    -1.193365
 H    -6.174521     8.164289    -1.127982
 H    -1.396738    -4.748527     3.907430
 O    -0.977157    -4.723822     3.017258
 H    -0.072642    -5.038579     3.094432
 H     4.395630    -2.072967     6.232673
 O     4.350527    -2.271054     5.272669
 H     3.594691    -2.882361     5.156222
 H     6.921798    -6.393584     3.263308
 O     7.349058    -6.014953     4.041897
 H     6.929718    -5.143226     4.169399
 H     8.942162    -5.141762     3.872258
 O     9.610195    -4.457304     3.679204
 H     9.407364    -3.714822     4.261458
 H     3.261847     7.391128    -8.474815
 O     3.264744     6.891546    -7.659631
 H     2.419581     7.113569    -7.198276
 H    -0.302449    -0.874374     8.229309
 O    -0.519251    -1.463558     8.965458
 H     0.150840    -2.152604     8.945750
 H     8.577419     3.905222    -2.717957
 O     9.227517     3.856210    -3.465664
 H     9.993258     4.343031    -3.160742
 H     6.503094     4.090145    -5.558695
 O     6.878914     4.504414    -4.759492
 H     7.817944     4.294913    -4.699192
 H     10.651815     1.360763    -4.597320
 O     9.934523     1.323668    -3.966479
 H     9.611836     2.242916    -3.832386
 H     3.360119    -2.210450     7.933151
 O     4.220153    -1.749620     7.882135
 H     3.999292    -0.806695     7.924549
 H    -2.796774    -2.202935    -8.533609
 O    -3.156206    -1.809462    -7.739526
 H    -2.408014    -1.375073    -7.276002
 H     5.516633     5.178581     1.149346
 O     5.308486     4.671308     1.944078
 H     4.346684     4.758732     2.076421
 H    -4.223572    -6.264384    -4.323058
 O    -3.390489    -5.807183    -4.460051
 H    -3.597156    -5.043232    -5.021678
 H    -5.952480     6.792352     4.906224
 O    -5.481504     7.575742     4.566831
 H    -5.391341     7.439695     3.597505
 H    -6.913120     4.876031     6.252244
 O    -6.660500     5.251299     5.399337
 H    -6.479735     4.484140     4.832205
 H    -6.550154     10.037254     2.305077
 O    -6.318496     10.373275     1.415047
 H    -6.740526     11.229919     1.341004
 H    -6.214465    -6.470628     2.308469
 O    -6.806012    -5.824010     1.893411
 H    -6.273533    -5.448361     1.159563
 H    -3.676406    -4.087330     8.036591
 O    -3.974229    -4.935716     7.661942
 H    -3.219565    -5.275655     7.167288
 H     9.614944     0.266452    -0.884830
 O     9.711352     1.208047    -1.117204
 H     9.987796     1.215400    -2.039585
 H    -7.992488    -3.545614     3.803789
 O    -7.083687    -3.862971     3.787496
 H    -7.020318    -4.543470     3.086658
 H     1.253891    -2.006439     7.021304
 O     1.724978    -2.756774     7.399689
 H     1.875236    -3.375018     6.667412
 H    -3.797807    -2.965334    -6.494929
 O    -4.218923    -3.539418    -5.838710
 H    -5.161864    -3.358916    -5.889268
 H    -7.990396     9.071917     3.817974
 O    -7.167539     9.560900     3.865530
 H    -6.510248     8.945810     4.254071
 H     7.742453    -2.790006    -5.297459
 O     6.833348    -2.486043    -5.299712
 H     6.352826    -3.072297    -4.685061
 H    -4.872309    -4.314344     6.249227
 O    -4.914627    -3.766160     5.441495
 H    -5.711243    -3.994771     4.940990
 N    -12.032232    -6.116615    -5.825238
 H    -12.647793    -6.852240    -5.489890
 H    -11.704398    -6.396388    -6.745734
 H    -12.604226    -5.285609    -5.951354
