604
grain_mol158 // -1645.758336125568 // -45.0439408421 // -668.018403867668 // -1022.7838731 // -0.0410924191 // -0.583498548702 // -0.011524293715
 H    -1.708728    -0.267306     2.518539
 O    -0.731057    -0.218446     2.589124
 H    -0.429990    -1.115804     2.866005
 H    -0.362658    -1.750799    -2.915950
 O    -0.422389    -1.819184    -1.950490
 H    -1.369333    -1.758287    -1.740680
 H    -2.736460     1.684430     1.004054
 O    -2.632589     1.080128     0.249904
 H    -1.863372     1.410531    -0.249253
 H    -3.761764     1.825283    -2.834433
 O    -3.237356     2.194194    -3.586103
 H    -2.366282     2.380921    -3.206677
 H    -0.068194    -0.617500    -0.799968
 O     0.051046     0.083194    -0.130013
 H    -0.362505    -0.250736     0.676789
 H     0.965832    -1.689884    -4.861260
 O     0.035314    -1.903128    -4.681785
 H    -0.035392    -2.866157    -4.762132
 H    -4.974686     2.310527    -1.065791
 O    -4.597458     1.506352    -1.473334
 H    -3.905072     1.217723    -0.832613
 H    -3.557760     3.129599     2.729727
 O    -2.824226     2.538200     2.473060
 H    -2.053856     2.878594     2.964035
 H     2.544453     0.439366    -2.924534
 O     1.961310    -0.229875    -2.511755
 H     1.048085     0.067503    -2.690196
 H    -1.157750     0.442110    -3.534508
 O    -0.357667     0.922817    -3.236625
 H    -0.611131     1.482495    -2.484022
 H     2.729491    -0.571236     0.537394
 O     2.646903    -1.289397    -0.123484
 H     2.361483    -0.873274    -0.959312
 H    -2.810173    -0.535647    -0.549620
 O    -2.946543    -0.962441    -1.405919
 H    -3.737354    -1.528541    -1.345911
 H     2.816104     1.330015    -0.744698
 O     1.986797     1.817709    -0.595603
 H     1.289149     1.145970    -0.441881
 H     0.483509     3.327861    -3.057262
 O     1.407778     3.146504    -2.844732
 H     1.433709     2.648459    -2.007030
 H     0.244005    -3.985770    -0.712780
 O     0.019533    -4.647229    -1.405720
 H    -0.748574    -5.135385    -1.030331
 H    -6.215053     1.818087     3.221626
 O    -6.265305     1.973028     4.201388
 H    -6.999116     1.412818     4.522226
 H     1.276683    -3.780573     1.139310
 O     0.840840    -3.116413     0.574648
 H     1.502076    -2.431393     0.347293
 H    -2.995116     5.162092    -0.616307
 O    -2.784751     4.323342    -0.153408
 H    -3.676471     3.950790     0.057815
 H    -5.419992    -1.503139     1.718470
 O    -5.171008    -0.829232     1.050597
 H    -5.278927    -1.251473     0.193111
 H    -0.194222    -3.377795     2.919162
 O     0.102828    -2.581188     3.390732
 H     1.041764    -2.450945     3.178906
 H     5.245147     1.172659    -1.145954
 O     4.474696     0.615581    -0.965010
 H     4.723917     0.168878    -0.125044
 H     0.728282     2.332499     1.187212
 O     0.741674     1.951469     2.074754
 H     0.147523     1.179230     2.097122
 H     4.465547    -0.319000    -2.371204
 O     4.666972    -0.762494    -3.226535
 H     5.126279    -0.081350    -3.760769
 H     3.000593     3.342735    -0.845645
 O     3.871567     3.760303    -0.815479
 H     4.350345     3.516942    -1.630661
 H    -5.830952    -1.568278    -1.869325
 O    -5.281687    -2.276039    -1.467552
 H    -5.188161    -2.960034    -2.152921
 H    -4.771555    -4.255905     1.137417
 O    -5.476952    -3.628407     0.891633
 H    -5.263599    -3.298745     0.008350
 H     2.653913     2.349239    -3.559095
 O     3.340208     1.694800    -3.802844
 H     3.399056     1.702597    -4.763816
 H    -5.153557     3.529146     4.008118
 O    -4.601900     4.152096     3.523417
 H    -4.078678     4.667245     4.174064
 H     0.593635     1.210466    -4.652154
 O     1.076669     1.143816    -5.501659
 H     1.699505     0.397119    -5.384570
 H     0.914621     5.882986    -1.986811
 O     1.721994     5.550105    -1.556300
 H     2.272679     5.147800    -2.256304
 H    -2.699213    -3.484188    -1.889746
 O    -2.830288    -3.782268    -0.973561
 H    -3.581735    -4.391629    -0.963148
 H     1.948799     5.390981    -4.282827
 O     1.067404     5.482918    -4.682487
 H     1.056415     4.814959    -5.392587
 H     7.753470     2.023816    -0.880307
 O     6.967800     1.665673    -1.332603
 H     7.334378     1.017980    -1.968117
 H     4.485139     2.828821     0.450438
 O     4.838360     2.439226     1.276132
 H     4.757628     3.156929     1.938306
 H     1.142399    -3.077710    -2.314379
 O     1.991986    -2.886527    -2.738133
 H     2.057463    -1.908419    -2.724559
 H     1.116078     4.623184    -0.358760
 O     0.679102     4.108874     0.357755
 H    -0.009199     4.685787     0.734847
 H    -5.709894     0.772530     1.385029
 O    -6.211527     1.578787     1.620177
 H    -7.141444     1.332759     1.382659
 H    -2.176274    -2.735861     0.187830
 O    -1.703455    -2.184898     0.840759
 H    -0.787450    -2.507085     0.810374
 H    -3.576295    -0.678008     4.320004
 O    -3.553381    -0.856985     5.287897
 H    -4.291102    -1.463873     5.524471
 H    -5.919238    -3.198129     3.176698
 O    -5.492981    -2.333891     3.300417
 H    -4.535553    -2.538275     3.275906
 H    -2.850323    -0.360180    -2.957256
 O    -2.599243    -0.379240    -3.907358
 H    -2.421908    -1.337836    -4.029946
 H    -3.378611    -3.330310    -3.814058
 O    -2.523701    -2.943154    -3.561865
 H    -1.821506    -3.548665    -3.870945
 H     3.227578    -0.918966    -4.331969
 O     2.667926    -1.015170    -5.126112
 H     3.294721    -1.132067    -5.858127
 H     4.574500     2.725969    -6.526832
 O     4.062784     1.892693    -6.574698
 H     3.214302     2.128336    -6.959122
 H    -4.089437     0.538595     5.899013
 O    -4.586370     1.339463     6.206362
 H    -5.165324     1.586447     5.456944
 H    -3.882324    -0.326161     2.067968
 O    -3.341289    -0.037223     2.822624
 H    -3.280540     0.939033     2.787202
 H    -5.801992     0.513504    -2.117111
 O    -6.335940    -0.139079    -2.616189
 H    -5.916511    -0.181842    -3.497288
 H     1.956614    -3.607625    -4.313918
 O     1.899284    -4.026123    -5.195261
 H     1.517651    -4.905214    -5.039398
 H     4.580920    -3.462694    -0.860339
 O     4.851289    -2.734346    -0.258702
 H     4.074527    -2.127725    -0.220956
 H    -0.284978     3.018699    -0.715231
 O    -1.031180     2.647557    -1.215059
 H    -1.756747     3.285895    -1.050117
 H     1.726414     4.313305     1.786933
 O     2.190522     4.414503     2.638271
 H     2.023416     3.595977     3.131111
 H     3.737587     1.138707     1.679466
 O     2.982762     0.534473     1.819389
 H     2.198482     1.093328     1.984873
 H     3.240580    -3.817163    -2.296094
 O     3.959401    -4.441849    -2.030030
 H     4.628305    -4.391869    -2.730705
 H     5.032382    -3.471039    -4.754932
 O     5.466434    -3.191343    -3.911990
 H     5.046838    -2.355685    -3.622320
 H    -1.122054     4.877732     2.410404
 O    -1.322844     5.467675     1.647181
 H    -1.954339     4.988036     1.050263
 H    -5.720006     2.945569     0.745300
 O    -5.298210     3.505707     0.058823
 H    -5.788124     4.356108     0.003144
 H     5.182844    -3.924967     2.676450
 O     4.418474    -3.734469     2.126295
 H     4.731998    -3.394291     1.258178
 H     5.924789    -1.264486     1.220362
 O     5.506290    -0.382093     1.261866
 H     6.277597     0.213839     1.329142
 H     1.751451    -6.518956    -3.389090
 O     1.562090    -6.692422    -4.336446
 H     2.432607    -6.725158    -4.759636
 H    -7.073228    -3.858079     0.707249
 O    -8.043720    -3.864701     0.518904
 H    -8.495584    -3.727378     1.379864
 H     3.363354    -2.533541     2.650069
 O     2.666219    -1.891267     2.881510
 H     2.863174    -1.055984     2.420240
 H    -1.866440     2.331484     5.280026
 O    -2.595540     2.949964     5.471632
 H    -3.319467     2.409591     5.840881
 H    -0.739277     0.637240     4.068301
 O    -0.619278     1.149189     4.899580
 H     0.207351     1.628808     4.778870
 H     0.131142     3.769220    -6.710475
 O     1.091516     3.582743    -6.620911
 H     1.133398     2.711117    -6.184083
 H     7.314088    -2.964891     4.477516
 O     6.563612    -3.409378     4.015880
 H     5.755971    -3.098123     4.489772
 H     8.016300     1.558069     1.390201
 O     7.957497     0.614269     1.631277
 H     8.447073     0.104497     0.959260
 H    -4.099289    -0.380765    -4.603260
 O    -5.031650    -0.427457    -4.929282
 H    -5.040124    -0.003800    -5.808989
 H     6.481164    -1.184377    -2.308239
 O     6.912263    -1.673444    -1.602048
 H     6.196614    -1.994409    -1.021133
 H     4.821754    -0.984911     4.343816
 O     5.210814    -0.208380     3.907684
 H     5.147553    -0.323897     2.935747
 H    -0.012235     3.116047     3.076951
 O    -0.650243     3.735918     3.483859
 H    -0.333629     3.956388     4.381039
 H     8.294235    -1.015939    -0.871272
 O     9.079889    -0.646970    -0.410344
 H     9.792351    -1.289554    -0.531065
 H     9.761754    -3.713563     1.830446
 O     9.448269    -3.485502     0.928366
 H     10.201651    -3.273598     0.366501
 H    -2.247155    -2.886297     3.761222
 O    -2.878826    -2.950102     3.034966
 H    -2.442225    -2.569128     2.231720
 H    -2.229411     1.022768    -6.175754
 O    -2.875765     1.755794    -6.168344
 H    -3.114858     1.883429    -5.226106
 H    -1.395407     4.076102    -5.282864
 O    -1.482564     4.085347    -6.272741
 H    -2.089110     3.339549    -6.455477
 H    -4.435904    -6.309276    -1.394477
 O    -4.919684    -5.594917    -0.953471
 H    -5.700095    -5.408325    -1.518407
 H     2.825853    -5.668517    -1.814148
 O     2.035084    -6.240830    -1.747078
 H     1.258163    -5.636266    -1.591654
 H     3.342098    -3.904755    -5.880894
 O     4.297993    -3.860814    -6.159605
 H     4.385732    -3.090431    -6.727379
 H     7.468869     3.499182     2.151860
 O     7.381478     3.185929     1.242702
 H     6.458132     2.836824     1.185863
 H     6.763514    -3.736779     0.063919
 O     7.266715    -4.523201    -0.205743
 H     8.155727    -4.360020     0.166538
 H    -7.388720    -4.496656    -2.570090
 O    -7.135438    -5.430959    -2.399968
 H    -7.739439    -5.752791    -1.703612
 H    -4.428104     6.379782     5.349817
 O    -3.537496     6.077864     5.089122
 H    -3.038584     5.841210     5.885791
 H     7.293624     3.442613     4.924123
 O     7.288983     3.087143     4.025758
 H     7.565281     2.154729     4.110565
 H    -5.679639     0.366004     7.071896
 O    -6.432226    -0.208416     7.344997
 H    -6.137498    -1.115390     7.158819
 H    -0.360825    -4.741515    -3.126834
 O    -0.543217    -4.601262    -4.073848
 H    -1.125153    -5.310895    -4.375067
 H     6.806877     0.153958     4.267012
 O     7.771560     0.370449     4.220865
 H     7.971900     0.382133     3.258248
 H     4.945301    -6.327943    -4.259797
 O     4.246806    -6.488002    -4.930496
 H     4.346268    -5.782702    -5.578570
 H    -5.902247    -1.778076    -5.238485
 O    -6.501979    -2.549987    -5.381723
 H    -7.368414    -2.136190    -5.629822
 H    -7.551183     0.121919     6.163582
 O    -8.131511     0.477692     5.443786
 H    -8.751540     1.070227     5.872082
 H    -5.289537     5.464409     2.669022
 O    -5.551332     6.383457     2.456876
 H    -4.705140     6.877666     2.450127
 H     5.719336     1.923565    -3.974286
 O     5.967821     1.175046    -4.559645
 H     5.460988     1.296522    -5.365043
 H    -6.004967     6.284650     0.797234
 O    -6.024651     6.110152    -0.169590
 H    -5.130833     6.415634    -0.464604
 H    -0.094921    -7.306142    -3.497781
 O    -0.782774    -7.481150    -2.845073
 H    -0.365395    -7.857417    -2.061249
 H    -2.371596    -1.967888     5.484394
 O    -1.699884    -2.684553     5.580587
 H    -0.874920    -2.207708     5.790745
 H     7.641294    -4.249362    -1.858407
 O     7.744552    -4.187061    -2.832250
 H     6.955555    -3.709845    -3.142500
 H    -8.763116    -2.997660    -3.293985
 O    -7.839257    -2.911111    -2.964999
 H    -7.310120    -2.669383    -3.740359
 H     8.897319    -2.958567    -3.171816
 O     9.509153    -2.210459    -3.337469
 H     8.990393    -1.398655    -3.193181
 H    -4.982721    -4.920646    -3.747026
 O    -4.967776    -3.964757    -3.569849
 H    -5.506776    -3.549214    -4.254127
 H    -3.821185     3.897581    -3.331020
 O    -3.675582     4.824940    -3.075017
 H    -4.423035     5.326810    -3.474876
 H    -0.453290     4.968686    -3.701416
 O    -1.110467     4.256162    -3.599141
 H    -1.946329     4.689515    -3.295886
 H    -1.733191    -4.425819     5.188075
 O    -2.010504    -5.275763     4.811565
 H    -2.950007    -5.142529     4.595172
 H    -2.538943     8.514699    -3.329647
 O    -2.740130     7.559563    -3.405855
 H    -2.556213     7.288822    -4.349087
 H    -3.073340     7.036469     3.661588
 O    -3.020135     7.281583     2.722728
 H    -2.412104     6.624298     2.326740
 H     4.867881     1.431176     4.214445
 O     4.687306     2.389135     4.097533
 H     5.548616     2.783277     3.863118
 H     8.046817    -1.912089     6.061186
 O     8.480308    -2.057421     5.197554
 H     8.409835    -1.187790     4.756357
 H     6.208012    -1.783997     7.611535
 O     6.894063    -1.225068     7.233357
 H     6.411170    -0.463418     6.841373
 H    -1.949002     5.902455    -6.086384
 O    -2.114579     6.844309    -5.892409
 H    -1.240996     7.267677    -6.011697
 H    -8.090931    -0.621001     4.067678
 O    -7.905765    -1.113411     3.255620
 H    -6.991756    -1.442574     3.326510
 H    -8.479523    -0.115515     0.340432
 O    -8.515163     0.486671     1.102051
 H    -8.461882    -0.095590     1.879060
 H     0.970747    -0.849962     5.879427
 O     0.147532    -0.969996     6.408256
 H    -0.378389    -0.195027     6.144250
 H    -0.613315     7.042098    -1.277216
 O    -0.566194     6.706769    -2.194070
 H    -1.438571     6.898750    -2.616274
 H     0.819548    -8.060055     0.195187
 O    -0.083942    -8.317595    -0.043722
 H    -0.520753    -8.433616     0.827942
 H     2.063589     2.421669     5.358344
 O     2.065834     2.186590     4.406308
 H     3.001821     2.245862     4.141466
 H    -7.892104    -5.448451    -5.651460
 O    -7.004874    -5.267444    -6.002872
 H    -6.872730    -4.315511    -5.903558
 H     3.275041    -7.578480     0.662601
 O     2.379382    -7.232134     0.648204
 H     2.274553    -6.854368    -0.262846
 H     3.111151     6.091548    -7.152522
 O     3.284590     5.141579    -7.324515
 H     2.470005     4.661343    -7.108480
 H    -0.641011     6.898315     0.885281
 O    -0.357615     7.641643     0.326788
 H    -1.051965     8.309973     0.416099
 H     4.460076     3.465143     5.353737
 O     4.370120     4.073946     6.126262
 H     5.255629     4.139018     6.493566
 H     7.710611     2.615934     6.849493
 O     7.162056     3.444352     6.822111
 H     7.640912     4.091920     7.338157
 H     4.259997    -7.877986    -1.457747
 O     4.775823    -7.362302    -0.816331
 H     5.194152    -6.678512    -1.364217
 H     6.848134    -5.678308    -3.045875
 O     6.095017    -6.297359    -3.015529
 H     6.455084    -7.202298    -2.996635
 H    -8.865092    -2.515307     3.039282
 O    -9.334257    -3.332884     2.769454
 H    -10.086338    -3.018968     2.239133
 H    -2.835775     8.583969     1.479165
 O    -2.714625     8.989644     0.604655
 H    -3.526262     9.538034     0.475492
 H     8.220688     0.454147     7.283753
 O     8.537658     1.185870     6.743171
 H     8.382958     0.900085     5.826167
 H    -2.341739     4.642643     7.958449
 O    -2.079016     4.910589     7.079035
 H    -2.260355     4.128538     6.476469
 H    -6.163818    -6.420211    -3.524634
 O    -5.501774    -6.566844    -4.224699
 H    -5.961690    -6.252055    -5.032703
 H     6.920437    -2.788821     2.468223
 O     7.023233    -2.481722     1.548095
 H     7.968842    -2.526296     1.344435
 H     2.188910     6.757666    -0.519573
 O     2.435706     7.474691     0.107175
 H     1.588807     7.774552     0.460261
 H    -4.033811    -7.329852    -3.154661
 O    -3.459161    -7.398798    -2.383618
 H    -2.551574    -7.482082    -2.727557
 H     0.664617     6.954343    -5.293432
 O     0.459806     7.841990    -5.672897
 H     0.480168     8.437374    -4.895164
 H    -8.232163    -1.780390    -1.602979
 O    -8.518025    -1.562072    -0.702331
 H    -8.261359    -2.369209    -0.201861
 H    -3.369655     7.109141    -1.837001
 O    -3.478072     6.849542    -0.896348
 H    -3.206111     7.632675    -0.372574
 H     2.988235    -4.637247     2.079491
 O     2.081396    -5.001874     2.082254
 H     2.152641    -5.870120     1.634738
 H    -8.854047    -0.751475    -4.908468
 O    -8.765089    -1.287416    -5.731064
 H    -8.503484    -0.648665    -6.417324
 H     7.507083     0.284889    -3.992756
 O     8.163998     0.228109    -3.279638
 H     8.818641     0.918689    -3.455466
 H     4.090866     6.734743     0.199218
 O     4.811318     6.126508    -0.032191
 H     4.367792     5.290838    -0.299111
 H    -7.976433     0.088115    -3.063050
 O    -8.880074     0.102728    -3.441727
 H    -9.466312    -0.181587    -2.739071
 H     6.010993     4.061447    -3.160194
 O     5.559732     3.249426    -2.864046
 H     6.166322     2.808147    -2.223339
 H    -1.147099    -6.981466    -0.192106
 O    -1.781411    -6.247206    -0.321825
 H    -2.378847    -6.532611    -1.019849
 H    -3.736601    -7.961231     0.699801
 O    -3.955942    -7.753788     1.611140
 H    -3.762049    -6.791834     1.718420
 H    -2.702683    -5.242431     0.989676
 O    -3.406950    -5.172282     1.654485
 H    -3.130401    -4.477864     2.286454
 H     5.499343    -6.338005     4.456048
 O     4.731508    -6.087037     3.939088
 H     5.015708    -6.127333     3.010546
 H    -9.454924    -6.268106    -4.029783
 O    -9.493527    -5.768007    -4.877371
 H    -10.130856    -6.228009    -5.424030
 H     6.451785    -5.607544     0.864485
 O     5.961472    -6.237231     1.432274
 H     5.510531    -6.808904     0.799621
 H    -1.147653    -6.931152     2.286985
 O    -1.266647    -7.895943     2.297183
 H    -2.224001    -8.041125     2.298521
 H    -10.018024    -4.089856    -4.499591
 O    -10.163897    -3.180746    -4.187852
 H    -9.954373    -2.590747    -4.924560
 H     0.258642     8.070451    -2.854010
 O     0.554435     8.930833    -3.222118
 H     1.457110     9.074814    -2.869706
 H    -8.929835    -8.071874    -2.738716
 O    -9.535194    -7.330099    -2.696317
 H    -9.412826    -6.934640    -1.814267
 H     2.161894     0.443360     4.594964
 O     2.284156    -0.426569     5.020872
 H     2.500738    -1.068799     4.312250
 H    -6.642078     0.556456    -7.449568
 O    -7.601470     0.615217    -7.308250
 H    -7.772641     1.496968    -6.975495
 H     6.065879     4.332574    -7.155275
 O     5.489108     4.220444    -6.399661
 H     4.628232     4.672713    -6.659213
 H    -5.533502     10.077598     1.231864
 O    -5.058762     10.150237     0.393160
 H    -5.641467     9.678990    -0.234084
 H    -0.835344    -0.904928    -5.766259
 O    -1.022724    -0.222144    -6.446246
 H    -0.251752     0.373080    -6.375168
 H     4.679295    -0.047284    -6.997017
 O     4.787654    -0.988015    -6.820349
 H     5.642734    -1.089685    -6.366248
 H     2.715536    -8.690345    -3.052220
 O     3.670560    -8.597790    -3.057664
 H     3.874075    -7.972517    -3.768964
 H    -4.312717    -0.206499    -7.805470
 O    -4.833054     0.520694    -7.431055
 H    -4.161622     1.158687    -7.095095
 H     1.382290     3.410416     6.848551
 O     2.144734     2.824031     7.020683
 H     2.944019     3.371695     6.911972
 H    -11.246076    -2.942857     0.069609
 O    -10.835576    -2.325734     0.675595
 H    -10.119179    -1.894459     0.177049
 H    -7.319544     1.436199     7.813686
 O    -7.813255     2.268015     7.776185
 H    -7.925588     2.561472     8.679812
 H     6.407338    -8.882808    -1.637128
 O     6.479014    -8.955508    -2.593842
 H     5.594737    -9.187022    -2.904434
 H     6.502188     5.375249    -0.606004
 O     7.152763     4.739722    -0.922201
 H     7.366590     4.175770    -0.151058
 H    -5.184995    -3.278485     5.804880
 O    -5.207870    -2.545243     6.458671
 H    -4.564709    -2.815249     7.136873
 H     2.713335     1.159314     7.528084
 O     3.198859     0.332426     7.396732
 H     2.874839    -0.022322     6.542118
 H    -2.506556    -3.269002     6.978776
 O    -2.978564    -3.452239     7.819764
 H    -2.355484    -3.140233     8.492010
 H     5.855209     1.825534     6.705924
 O     5.584122     0.958297     6.399487
 H     4.708215     0.769329     6.796936
 H     2.170544    -4.530865     3.922779
 O     2.664127    -4.494973     4.754836
 H     3.376457    -5.146894     4.631664
 H     10.492734    -2.432343    -2.031540
 O     11.001408    -2.468803    -1.176352
 H     11.926478    -2.409768    -1.408839
 H     3.678532     8.452854    -2.516588
 O     2.992617     8.995024    -2.107800
 H     2.837978     8.599284    -1.230482
 H    -7.974759    -6.703651     0.225329
 O    -8.639306    -6.270354    -0.334552
 H    -8.603006    -5.333142    -0.022277
 H    -0.956152     9.760167    -2.754032
 O    -1.893893     9.909865    -2.526170
 H    -1.956664     9.963367    -1.569970
 H     4.005314     4.234840    -3.594847
 O     3.435361     5.009326    -3.576466
 H     3.980916     5.786896    -3.337325
 H     5.021041     6.753886    -1.689648
 O     4.933773     7.005299    -2.629759
 H     5.716613     6.685644    -3.096380
 H    -0.387641     4.856437     6.363536
 O     0.336908     4.415629     5.897599
 H     1.008969     5.087098     5.628437
 H     3.173846     5.362814     5.394770
 O     2.395114     5.803947     5.024026
 H     2.336745     5.513586     4.099918
 H    -7.429111     8.905738     0.357548
 O    -7.157050     8.674760    -0.546888
 H    -6.878029     7.740150    -0.462374
 H    -1.107514    -5.255046     3.402685
 O    -0.675076    -5.115394     2.529421
 H     0.250846    -5.361779     2.601619
 H     4.403205    -2.360380     6.116957
 O     4.392621    -2.470647     5.141960
 H     3.691130    -3.125976     4.949827
 H     7.327643    -6.170361     2.830845
 O     7.707705    -5.834004     3.652135
 H     7.216856    -5.013801     3.847996
 H     9.227821    -4.825612     3.605770
 O     9.841699    -4.075477     3.494209
 H     9.568283    -3.409189     4.136669
 H     2.784665     8.324414    -7.681126
 O     2.810798     7.751300    -6.916310
 H     1.941412     7.860415    -6.460016
 H    -0.413927    -1.729067     8.090018
 O    -0.596446    -2.400217     8.762575
 H     0.127886    -3.028967     8.697671
 H     8.256358     4.742304    -2.131972
 O     8.922677     4.814923    -2.863362
 H     9.640305     5.330086    -2.494663
 H     6.228258     5.028467    -4.997635
 O     6.554479     5.394308    -4.154264
 H     7.505994     5.254430    -4.088739
 H     10.565669     2.557283    -4.181742
 O     9.841883     2.404509    -3.576241
 H     9.443227     3.278760    -3.366579
 H     3.349898    -2.738069     7.769568
 O     4.170567    -2.208092     7.783924
 H     3.873288    -1.293644     7.906912
 H    -2.472464    -1.671505    -8.783604
 O    -2.878199    -1.385149    -7.966249
 H    -2.176787    -0.937264    -7.445185
 H     5.029094     5.401508     1.753557
 O     4.847887     4.807116     2.492606
 H     3.879748     4.805439     2.606703
 H    -3.643475    -6.212313    -5.006562
 O    -2.849446    -5.677518    -5.075890
 H    -3.105333    -4.883537    -5.571644
 H    -6.602697     5.745913     5.336336
 O    -6.190754     6.592574     5.083381
 H    -6.069856     6.555469     4.108339
 H    -7.430077     3.641382     6.475370
 O    -7.193156     4.113782     5.667435
 H    -6.939049     3.420093     5.037339
 H    -7.412365     9.161497     3.028492
 O    -7.194044     9.596520     2.178836
 H    -7.678943     10.422493     2.176415
 H    -5.739973    -7.194148     1.523790
 O    -6.374553    -6.561486     1.152621
 H    -5.858461    -6.076156     0.473733
 H    -3.512035    -5.166049     7.513197
 O    -3.733032    -5.996175     7.053896
 H    -2.943617    -6.227885     6.551006
 H     9.550419     1.040998    -0.614366
 O     9.574805     2.004878    -0.756491
 H     9.867013     2.120526    -1.666709
 H    -7.776190    -4.572533     3.235449
 O    -6.844559    -4.814232     3.213150
 H    -6.713223    -5.418970     2.454931
 H     1.252029    -2.616278     6.824722
 O     1.774736    -3.359496     7.144907
 H     1.988863    -3.892339     6.363091
 H    -3.444447    -2.699742    -6.851108
 O    -3.833280    -3.364145    -6.263285
 H    -4.785848    -3.251291    -6.323987
 H    -8.797141     7.949048     4.409517
 O    -8.017848     8.495187     4.523019
 H    -7.320032     7.900217     4.870323
 H     8.016453    -1.725963    -5.337355
 O     7.085795    -1.496296    -5.336226
 H     6.642883    -2.173440    -4.790681
 H    -4.650499    -5.318009     5.681753
 O    -4.722093    -4.702112     4.926436
 H    -5.487980    -4.945344     4.386642
 N    -5.704042     6.600957    -3.882871
 H    -5.066808     7.394889    -3.866370
 H    -6.398687     6.762960    -3.158537
 H    -6.191050     6.630474    -4.773013
