604
grain_mol72 // -1717.11222576491 // -50.1324727399 // -744.46284668481 // -1022.78185182 // -0.051850837 // -0.584532937304 // -0.014112475924
 H    -1.796627    -0.015892     2.512895
 O    -0.819596     0.013831     2.599202
 H    -0.546255    -0.870645     2.939201
 H    -0.401583    -1.882673    -2.779166
 O    -0.474171    -1.889196    -1.810980
 H    -1.421891    -1.790152    -1.622671
 H    -2.747486     1.857823     0.854591
 O    -2.648215     1.204981     0.141404
 H    -1.857604     1.478017    -0.358523
 H    -3.717532     1.897403    -3.026103
 O    -3.197635     2.226855    -3.796394
 H    -2.297149     2.368750    -3.485984
 H    -0.105023    -0.620619    -0.743707
 O     0.012569     0.122159    -0.119807
 H    -0.417027    -0.152881     0.700566
 H     0.865764    -1.927950    -4.540145
 O    -0.089361    -2.146670    -4.489508
 H    -0.115421    -3.119573    -4.506917
 H    -4.930651     2.401998    -1.296217
 O    -4.562562     1.569815    -1.651990
 H    -3.891413     1.302537    -0.979645
 H    -3.561035     3.432395     2.467846
 O    -2.838483     2.808407     2.262457
 H    -2.068350     3.160030     2.745978
 H     2.573110     0.200729    -2.888118
 O     1.956825    -0.392401    -2.413339
 H     1.061307    -0.085735    -2.647647
 H    -1.126104     0.282876    -3.552538
 O    -0.324513     0.771687    -3.274247
 H    -0.574048     1.379954    -2.559369
 H     2.667544    -0.557950     0.641563
 O     2.576305    -1.317028     0.029990
 H     2.319499    -0.949219    -0.838567
 H    -2.849864    -0.455976    -0.553590
 O    -2.984507    -0.931916    -1.383939
 H    -3.788817    -1.475574    -1.300982
 H     2.823940     1.254468    -0.763880
 O     2.006466     1.772226    -0.652787
 H     1.289498     1.127029    -0.476502
 H     0.590025     3.146798    -3.236129
 O     1.506909     2.964810    -2.992791
 H     1.506502     2.516123    -2.127602
 H     0.117613    -3.982655    -0.435950
 O    -0.112246    -4.684121    -1.086894
 H    -0.898888    -5.126378    -0.693816
 H    -6.260013     2.221378     2.991019
 O    -6.323416     2.441156     3.957331
 H    -7.076912     1.921260     4.299913
 H     1.121100    -3.682740     1.420464
 O     0.712230    -3.047373     0.804989
 H     1.394862    -2.394051     0.547041
 H    -2.880787     5.231500    -1.056022
 O    -2.705592     4.443659    -0.507831
 H    -3.595487     4.082018    -0.314245
 H    -5.523758    -1.208780     1.722594
 O    -5.246174    -0.586585     1.016742
 H    -5.349572    -1.062036     0.187043
 H    -0.369560    -3.129217     3.141965
 O    -0.060975    -2.311342     3.567199
 H     0.884748    -2.217654     3.365842
 H     5.253622     1.008388    -1.107480
 O     4.466284     0.484355    -0.903365
 H     4.689605     0.089947    -0.031351
 H     0.732205     2.429294     1.061738
 O     0.715808     2.110591     1.973462
 H     0.103732     1.354656     2.033666
 H     4.450990    -0.549578    -2.264057
 O     4.673316    -1.048610    -3.081501
 H     5.156809    -0.405839    -3.640624
 H     3.063941     3.248770    -0.987283
 O     3.942926     3.649754    -0.967321
 H     4.431723     3.340658    -1.754256
 H    -5.873136    -1.498883    -1.860463
 O    -5.348993    -2.192104    -1.403735
 H    -5.261068    -2.921385    -2.041354
 H    -4.936040    -4.009112     1.333979
 O    -5.620819    -3.382353     1.033879
 H    -5.383031    -3.116380     0.135562
 H     2.739656     2.086088    -3.637035
 O     3.413742     1.402208    -3.824554
 H     3.492317     1.344952    -4.782225
 H    -5.168672     3.953778     3.685563
 O    -4.592618     4.530143     3.172320
 H    -4.067849     5.073355     3.798551
 H     0.568547     1.071139    -4.667050
 O     1.053827     0.919594    -5.511634
 H     1.708766     0.221483    -5.262969
 H     1.063771     5.759505    -2.336015
 O     1.852413     5.439865    -1.865530
 H     2.409052     4.976951    -2.522933
 H    -2.791399    -3.486921    -1.696586
 O    -2.946664    -3.721827    -0.765919
 H    -3.713392    -4.310814    -0.730560
 H     2.125733     5.094243    -4.566926
 O     1.253157     5.178344    -4.989333
 H     1.245184     4.469305    -5.661098
 H     7.780016     1.816930    -0.844057
 O     6.993169     1.450117    -1.286928
 H     7.353824     0.754085    -1.873301
 H     4.510590     2.785360     0.367464
 O     4.838287     2.443146     1.224090
 H     4.764572     3.204731     1.835921
 H     1.070970    -3.191975    -2.076025
 O     1.924880    -3.058165    -2.513029
 H     2.028630    -2.081916    -2.558428
 H     1.204461     4.605516    -0.621367
 O     0.739888     4.150514     0.117295
 H     0.062342     4.768612     0.444598
 H    -5.749169     1.046134     1.236298
 O    -6.233656     1.878592     1.407607
 H    -7.165530     1.640117     1.169446
 H    -2.286005    -2.619150     0.338477
 O    -1.811171    -2.038011     0.962993
 H    -0.902870    -2.383065     0.970366
 H    -3.706090    -0.261739     4.300122
 O    -3.705026    -0.377486     5.277785
 H    -4.462028    -0.949555     5.539001
 H    -6.092348    -2.792658     3.277143
 O    -5.646175    -1.932874     3.352190
 H    -4.694044    -2.161972     3.360300
 H    -2.845016    -0.437728    -2.966879
 O    -2.579778    -0.519379    -3.910408
 H    -2.416263    -1.487135    -3.967821
 H    -3.434978    -3.442976    -3.637442
 O    -2.575276    -3.059820    -3.396511
 H    -1.882963    -3.700363    -3.651292
 H     3.315348    -1.296698    -4.423133
 O     2.497627    -1.243493    -4.946309
 H     2.595570    -1.704005    -5.820302
 H     4.718014     2.218427    -6.584618
 O     4.179029     1.401608    -6.578257
 H     3.351717     1.630172    -7.009256
 H    -4.215496     1.067601     5.786842
 O    -4.697036     1.898831     6.031854
 H    -5.256060     2.110374     5.257003
 H    -3.962954    -0.049784     2.024139
 O    -3.428445     0.274472     2.768960
 H    -3.341529     1.244437     2.671577
 H    -5.784608     0.562172    -2.242914
 O    -6.326904    -0.108596    -2.707522
 H    -5.894601    -0.219891    -3.576179
 H     1.897106    -3.938420    -4.044272
 O     1.852240    -4.437465    -4.886361
 H     1.474035    -5.299708    -4.614414
 H     4.465832    -3.577686    -0.530618
 O     4.744511    -2.819995     0.029064
 H     3.983974    -2.191635     0.011734
 H    -0.230478     3.016288    -0.899144
 O    -0.978989     2.635780    -1.388803
 H    -1.691651     3.297831    -1.271931
 H     1.768513     4.420992     1.551470
 O     2.217706     4.567866     2.403911
 H     2.022618     3.786897     2.945173
 H     3.698115     1.198257     1.688693
 O     2.925629     0.624107     1.856256
 H     2.153646     1.212081     1.967744
 H     3.141325    -3.988982    -1.971290
 O     3.835614    -4.615011    -1.648708
 H     4.524311    -4.620379    -2.333162
 H     4.965444    -3.782481    -4.395389
 O     5.423946    -3.525898    -3.546804
 H     5.053263    -2.650279    -3.292455
 H    -1.073198     5.096184     2.084528
 O    -1.247123     5.640193     1.280936
 H    -1.879706     5.136518     0.706816
 H    -5.680693     3.206589     0.448348
 O    -5.224770     3.697385    -0.261757
 H    -5.672294     4.552513    -0.428349
 H     4.994481    -3.822095     3.040148
 O     4.244561    -3.650586     2.464472
 H     4.581489    -3.374897     1.582035
 H     5.830239    -1.281868     1.430160
 O     5.433864    -0.388742     1.407818
 H     6.218894     0.191300     1.449085
 H     1.605542    -6.721034    -2.909369
 O     1.433415    -6.945630    -3.850383
 H     2.313002    -7.035298    -4.246480
 H    -7.219035    -3.584025     0.833917
 O    -8.185785    -3.579146     0.627283
 H    -8.649358    -3.374770     1.468556
 H     3.211993    -2.391752     2.888562
 O     2.527462    -1.719083     3.064834
 H     2.753966    -0.920862     2.553936
 H    -1.936328     2.761488     5.095871
 O    -2.652936     3.408649     5.232287
 H    -3.396529     2.911399     5.622447
 H    -0.831615     0.964547     4.018728
 O    -0.713742     1.527102     4.816971
 H     0.127389     1.976770     4.681768
 H     0.312785     3.370935    -6.929825
 O     1.265940     3.175398    -6.801442
 H     1.274886     2.332442    -6.304626
 H     7.117207    -2.799604     4.816843
 O     6.363842    -3.255189     4.370980
 H     5.556225    -2.893495     4.807504
 H     7.990364     1.493521     1.456618
 O     7.903368     0.569506     1.758114
 H     8.390875     0.004844     1.129809
 H    -4.063851    -0.536302    -4.630976
 O    -4.991081    -0.579400    -4.972125
 H    -4.974568    -0.212399    -5.876709
 H     6.451081    -1.445799    -2.085608
 O     6.856818    -1.898325    -1.340762
 H     6.122961    -2.161961    -0.754164
 H     4.679691    -0.771872     4.506045
 O     5.096052    -0.034893     4.028686
 H     5.048022    -0.211889     3.064840
 H    -0.024459     3.355016     2.882000
 O    -0.653265     4.015919     3.235839
 H    -0.346524     4.286299     4.122852
 H     8.242001    -1.227573    -0.627833
 O     9.028214    -0.850148    -0.174542
 H     9.726231    -1.515996    -0.241139
 H     9.591736    -3.779384     2.272013
 O     9.300097    -3.604000     1.351151
 H     10.068280    -3.446310     0.791437
 H    -2.424527    -2.533715     3.911602
 O    -3.044571    -2.629216     3.178786
 H    -2.583771    -2.312423     2.361273
 H    -2.117116     0.701776    -6.258243
 O    -2.746590     1.446126    -6.308842
 H    -3.002973     1.646303    -5.384002
 H    -1.197924     3.785022    -5.519953
 O    -1.319374     3.739300    -6.497068
 H    -1.906181     2.975254    -6.633957
 H    -4.608985    -6.231234    -1.052575
 O    -5.081572    -5.477422    -0.669101
 H    -5.847305    -5.309570    -1.259430
 H     2.672824    -5.796413    -1.376201
 O     1.866524    -6.344927    -1.289244
 H     1.103264    -5.712211    -1.184807
 H     3.352837    -4.332457    -5.550018
 O     4.310427    -4.291429    -5.819743
 H     4.413673    -3.468614    -6.331659
 H     7.479175     3.493172     2.080508
 O     7.400200     3.123704     1.191972
 H     6.469699     2.793598     1.139316
 H     6.625272    -3.844439     0.452046
 O     7.112296    -4.659768     0.245905
 H     7.998724    -4.493759     0.623067
 H    -7.492476    -4.427767    -2.400831
 O    -7.265913    -5.354897    -2.165996
 H    -7.890184    -5.615863    -1.461916
 H    -4.393943     6.867083     4.853720
 O    -3.506943     6.527189     4.629923
 H    -3.028284     6.330793     5.449737
 H     7.253680     3.621736     4.846875
 O     7.255562     3.208915     3.973395
 H     7.506580     2.277532     4.123226
 H    -5.830316     1.010826     6.937312
 O    -6.602297     0.474081     7.231976
 H    -6.327636    -0.450071     7.111042
 H    -0.466042    -4.877522    -2.802036
 O    -0.628343    -4.801269    -3.760257
 H    -1.227011    -5.513149    -4.020250
 H     6.694359     0.310365     4.394384
 O     7.665003     0.499561     4.353366
 H     7.882659     0.443868     3.395917
 H     4.818349    -6.664932    -3.730084
 O     4.128619    -6.845520    -4.405868
 H     4.265258    -6.186813    -5.094075
 H    -5.889799    -1.925494    -5.210543
 O    -6.504613    -2.691234    -5.317093
 H    -7.356765    -2.273391    -5.606514
 H    -7.691082     0.754173     6.010351
 O    -8.248963     1.076486     5.257740
 H    -8.861435     1.710350     5.634672
 H    -5.231126     5.799827     2.222825
 O    -5.465382     6.708569     1.944116
 H    -4.607335     7.181286     1.923665
 H     5.795428     1.565895    -3.966746
 O     6.042189     0.775854    -4.494583
 H     5.555625     0.849023    -5.318072
 H    -5.860351     6.487286     0.293468
 O    -5.882701     6.248150    -0.656757
 H    -4.991158     6.479382    -0.993304
 H    -0.256991    -7.469772    -3.001077
 O    -0.961510    -7.585892    -2.353443
 H    -0.569225    -7.918333    -1.537360
 H    -2.555521    -1.501900     5.568745
 O    -1.904426    -2.227099     5.723918
 H    -1.071267    -1.757978     5.918880
 H     7.524022    -4.503175    -1.414570
 O     7.646179    -4.509871    -2.387845
 H     6.875625    -4.033168    -2.744120
 H    -8.814823    -2.945681    -3.246649
 O    -7.894679    -2.860878    -2.906575
 H    -7.346675    -2.681707    -3.685550
 H     8.835723    -3.330938    -2.783422
 O     9.470056    -2.610800    -2.984213
 H     8.969871    -1.778308    -2.904757
 H    -5.079907    -4.986172    -3.500271
 O    -5.041427    -4.021294    -3.386825
 H    -5.559541    -3.637896    -4.105187
 H    -3.635315     3.985814    -3.566649
 O    -3.345963     4.843800    -3.216559
 H    -3.628234     5.534541    -3.817379
 H    -0.224091     4.704322    -4.081102
 O    -0.884892     4.018298    -3.876877
 H    -1.667258     4.471850    -3.503755
 H    -1.975278    -3.989038     5.444673
 O    -2.267916    -4.854518     5.118515
 H    -3.199740    -4.712498     4.876131
 H    -2.382967     8.352181    -3.845508
 O    -2.588373     7.399376    -3.938270
 H    -2.384840     7.148940    -4.866452
 H    -2.993594     7.378877     3.153832
 O    -2.916934     7.560111     2.202043
 H    -2.317854     6.863966     1.862833
 H     4.790024     1.628464     4.221168
 O     4.636117     2.581159     4.040060
 H     5.511131     2.937763     3.796370
 H     7.848599    -1.663741     6.342710
 O     8.293419    -1.875850     5.498912
 H     8.253131    -1.035465     5.000797
 H     5.986321    -1.389876     7.845523
 O     6.693256    -0.873805     7.445554
 H     6.237343    -0.127853     6.995389
 H    -1.707796     5.573808    -6.517422
 O    -1.842755     6.517531    -6.340827
 H    -0.970694     6.940032    -6.439457
 H    -8.212594    -0.110499     3.957031
 O    -8.025646    -0.659139     3.182256
 H    -7.121890    -1.005416     3.292207
 H    -8.521817     0.160039     0.198230
 O    -8.554716     0.811473     0.918294
 H    -8.530862     0.280110     1.732385
 H     0.806670    -0.442894     5.954924
 O    -0.028781    -0.508021     6.474271
 H    -0.529569     0.260953     6.150707
 H    -0.454218     7.001402    -1.733118
 O    -0.409302     6.601428    -2.624744
 H    -1.261886     6.794854    -3.075298
 H     0.571064    -8.002541     0.747321
 O    -0.334245    -8.253076     0.507523
 H    -0.789482    -8.301285     1.376243
 H     1.992830     2.760237     5.244147
 O     2.005530     2.463768     4.309548
 H     2.947375     2.481958     4.059522
 H    -7.964886    -5.566499    -5.423506
 O    -7.067117    -5.429801    -5.768356
 H    -6.913544    -4.476748    -5.728292
 H     3.029299    -7.551414     1.230040
 O     2.142888    -7.185980     1.173951
 H     2.065391    -6.865381     0.238970
 H     3.357452     5.578051    -7.455869
 O     3.509358     4.615124    -7.563455
 H     2.679377     4.169607    -7.331789
 H    -0.515731     7.000298     0.436858
 O    -0.206948     7.695608    -0.168219
 H    -0.881532     8.388565    -0.130230
 H     4.414705     3.741914     5.218564
 O     4.326436     4.402100     5.948023
 H     5.206651     4.469373     6.327486
 H     7.615065     2.912860     6.829084
 O     7.088255     3.750820     6.737999
 H     7.575133     4.419031     7.219025
 H     4.044441    -8.013243    -0.845896
 O     4.561583    -7.469114    -0.229881
 H     5.006981    -6.832827    -0.812575
 H     6.712247    -5.984649    -2.524343
 O     5.944236    -6.584454    -2.471177
 H     6.283214    -7.493351    -2.384050
 H    -9.016735    -2.048444     3.038696
 O    -9.501613    -2.870238     2.813129
 H    -10.236198    -2.573321     2.249545
 H    -2.676179     8.776759     0.889830
 O    -2.530880     9.118307    -0.008208
 H    -3.325742     9.677934    -0.190951
 H     8.061690     0.772217     7.412193
 O     8.406807     1.459184     6.831615
 H     8.261156     1.118023     5.932173
 H    -2.399403     5.253739     7.608986
 O    -2.115067     5.457119     6.719045
 H    -2.305265     4.641737     6.165450
 H    -6.299956    -6.439239    -3.204816
 O    -5.629407    -6.645879    -3.881374
 H    -6.067860    -6.373803    -4.716483
 H     6.764437    -2.745649     2.793095
 O     6.891002    -2.502360     1.857117
 H     7.838625    -2.582322     1.674808
 H     2.333743     6.698878    -0.898421
 O     2.586992     7.448979    -0.314675
 H     1.742120     7.792364     0.001171
 H    -4.202030    -7.374702    -2.735300
 O    -3.642800    -7.406380    -1.950676
 H    -2.731744    -7.534878    -2.270345
 H     0.904137     6.621692    -5.702407
 O     0.733294     7.486667    -6.143341
 H     0.749465     8.132007    -5.406668
 H    -8.283055    -1.633703    -1.628328
 O    -8.578418    -1.350026    -0.749293
 H    -8.352089    -2.129044    -0.192722
 H    -3.259534     7.098088    -2.282670
 O    -3.361943     6.934722    -1.335401
 H    -3.059593     7.744676    -0.873342
 H     2.792953    -4.518046     2.448520
 O     1.877166    -4.859946     2.457256
 H     1.934343    -5.756724     2.068354
 H    -8.819105    -0.809767    -5.005077
 O    -8.727660    -1.400317    -5.789111
 H    -8.439671    -0.812743    -6.509875
 H     7.547646    -0.123275    -3.837387
 O     8.188606    -0.139411    -3.107440
 H     8.862166     0.521748    -3.320232
 H     4.221543     6.675782    -0.142920
 O     4.929825     6.036299    -0.320554
 H     4.470222     5.195770    -0.541740
 H    -7.953880     0.128301    -3.200272
 O    -8.849379     0.137802    -3.597310
 H    -9.455976    -0.081372    -2.888674
 H     6.131308     3.744276    -3.283162
 O     5.652257     2.966470    -2.942785
 H     6.236881     2.549459    -2.266226
 H    -1.360161    -6.903460     0.254675
 O    -1.973010    -6.164159     0.064686
 H    -2.565511    -6.480216    -0.624160
 H    -3.989135    -7.759460     1.157328
 O    -4.219855    -7.487425     2.048622
 H    -4.002707    -6.525660     2.097275
 H    -2.890754    -5.053557     1.290623
 O    -3.605167    -4.922881     1.935126
 H    -3.322123    -4.195939     2.526414
 H     5.216908    -6.120839     4.978730
 O     4.464460    -5.887397     4.431751
 H     4.764919    -5.993331     3.513513
 H    -9.576819    -6.239396    -3.782905
 O    -9.586830    -5.795277    -4.661938
 H    -10.227535    -6.272884    -5.189218
 H     6.251832    -5.649944     1.367444
 O     5.735245    -6.229581     1.964841
 H     5.281596    -6.829942     1.361552
 H    -1.402602    -6.692037     2.724067
 O    -1.546938    -7.651082     2.792566
 H    -2.507599    -7.771933     2.786759
 H    -10.075556    -4.083345    -4.403544
 O    -10.203024    -3.152705    -4.153491
 H    -9.966619    -2.616763    -4.922678
 H     0.481668     7.903162    -3.351820
 O     0.804857     8.730286    -3.766331
 H     1.704981     8.874989    -3.407115
 H    -9.122204    -7.967404    -2.366444
 O    -9.708103    -7.209222    -2.385118
 H    -9.592097    -6.760021    -1.528297
 H     2.053714     0.734230     4.612619
 O     2.145108    -0.108738     5.096475
 H     2.358574    -0.800854     4.435332
 H    -6.532100     0.279861    -7.581343
 O    -7.491527     0.369045    -7.459981
 H    -7.646467     1.275783    -7.192413
 H     6.265406     3.748566    -7.286183
 O     5.672867     3.703219    -6.535873
 H     4.828823     4.156850    -6.842036
 H    -5.330780     10.314906     0.484368
 O    -4.835923     10.319405    -0.345893
 H    -5.419899     9.826476    -0.955428
 H    -0.780643    -1.263471    -5.788135
 O    -0.926016    -0.605839    -6.513039
 H    -0.180972     0.021516    -6.344436
 H     4.748797    -0.825679    -6.810920
 O     5.123180    -1.713176    -6.891737
 H     5.910243    -1.692711    -6.311354
 H     2.507204    -8.889889    -2.413479
 O     3.464249    -8.822160    -2.407574
 H     3.697689    -8.249168    -3.152456
 H    -4.219066    -0.564948    -7.839850
 O    -4.726061     0.199405    -7.525306
 H    -4.044355     0.841444    -7.221869
 H     1.310732     3.860563     6.653797
 O     2.054514     3.268189     6.878490
 H     2.869612     3.787557     6.749687
 H    -11.355239    -2.609807     0.057046
 O    -10.939142    -1.965606     0.630122
 H    -10.203643    -1.584822     0.118534
 H    -7.455051     2.167229     7.576236
 O    -7.926323     3.006707     7.475018
 H    -8.047564     3.361226     8.355302
 H     6.169014    -9.079326    -0.917167
 O     6.254089    -9.217518    -1.865528
 H     5.369457    -9.447742    -2.175731
 H     6.610319     5.208540    -0.810879
 O     7.250771     4.539022    -1.072652
 H     7.435695     4.020198    -0.263358
 H    -5.407000    -2.719626     5.918923
 O    -5.422684    -1.944826     6.523099
 H    -4.798811    -2.185549     7.229788
 H     2.570835     1.626483     7.503488
 O     3.036748     0.780905     7.435630
 H     2.719427     0.379417     6.599361
 H    -2.750540    -2.699141     7.141268
 O    -3.242161    -2.815409     7.982940
 H    -2.623275    -2.475683     8.645585
 H     5.742944     2.160463     6.700845
 O     5.455085     1.281838     6.446621
 H     4.567665     1.140937     6.838229
 H     1.946106    -4.271847     4.264736
 O     2.425144    -4.194487     5.102419
 H     3.122919    -4.869960     5.035179
 H     10.423561    -2.770787    -1.648896
 O     10.916592    -2.764632    -0.783620
 H     11.846613    -2.741012    -1.002225
 H     3.902113     8.222711    -2.972504
 O     3.222435     8.806321    -2.613159
 H     3.043526     8.473485    -1.714686
 H    -8.184723    -6.432028     0.519765
 O    -8.827160    -6.019960    -0.080506
 H    -8.772884    -5.065595     0.171485
 H    -0.706498     9.618556    -3.397067
 O    -1.645305     9.790531    -3.192495
 H    -1.715054     9.928484    -2.245356
 H     4.134862     3.936936    -3.769803
 O     3.586083     4.726095    -3.809600
 H     4.149971     5.502473    -3.612475
 H     5.185860     6.548486    -2.011564
 O     5.120636     6.740801    -2.967241
 H     5.902461     6.371639    -3.397969
 H    -0.412363     5.315194     6.041632
 O     0.308110     4.826943     5.618758
 H     1.002681     5.462265     5.320293
 H     3.177272     5.669272     5.111563
 O     2.416706     6.104099     4.697988
 H     2.367689     5.755606     3.793671
 H    -7.170936     8.999969    -0.320606
 O    -6.877714     8.757550    -1.208807
 H    -6.647281     7.813029    -1.160510
 H    -1.339610    -4.948096     3.729128
 O    -0.888941    -4.877895     2.856764
 H     0.029564    -5.139434     2.962942
 H     4.194219    -2.018298     6.356722
 O     4.197842    -2.191644     5.390948
 H     3.483431    -2.840828     5.228116
 H     7.077661    -6.104892     3.382165
 O     7.450758    -5.725761     4.187855
 H     6.978538    -4.882186     4.320001
 H     8.997352    -4.759632     4.105624
 O     9.632426    -4.033882     3.957741
 H     9.364703    -3.320223     4.549741
 H     3.098440     7.778095    -8.134731
 O     3.097912     7.256920    -7.333213
 H     2.223899     7.417317    -6.901474
 H    -0.639112    -1.141667     8.190815
 O    -0.851029    -1.763035     8.901511
 H    -0.141845    -2.412016     8.891750
 H     8.374555     4.434723    -2.259320
 O     9.055387     4.444018    -2.980691
 H     9.779587     4.963481    -2.631401
 H     6.405404     4.582135    -5.175961
 O     6.725902     4.996075    -4.352624
 H     7.671940     4.836281    -4.259225
 H     10.661966     2.065079    -4.119520
 O     9.927310     1.970462    -3.515247
 H     9.545568     2.865369    -3.372387
 H     3.102253    -2.261235     8.009728
 O     3.935901    -1.751808     8.005709
 H     3.660283    -0.824198     8.063031
 H    -2.550215    -2.182808    -8.805507
 O    -2.840204    -1.796799    -7.974120
 H    -2.054507    -1.330703    -7.594369
 H     5.097390     5.424188     1.511614
 O     4.887323     4.885232     2.284769
 H     3.917627     4.914491     2.379263
 H    -3.750022    -6.389133    -4.645137
 O    -2.940262    -5.882548    -4.740922
 H    -3.170128    -5.113589    -5.286145
 H    -6.583594     6.286793     4.839878
 O    -6.145293     7.104576     4.540265
 H    -6.009434     7.001136     3.572270
 H    -7.484998     4.282536     6.095934
 O    -7.221454     4.695072     5.263794
 H    -6.974535     3.955540     4.685116
 H    -7.263469     9.564861     2.301137
 O    -7.016990     9.938000     1.430072
 H    -7.483298     10.771847     1.361507
 H    -5.986655    -6.891355     1.890684
 O    -6.598220    -6.269174     1.466832
 H    -6.057716    -5.841313     0.768700
 H    -3.814010    -4.531952     7.777947
 O    -4.048164    -5.384465     7.368880
 H    -3.255948    -5.667975     6.897949
 H     9.545707     0.809103    -0.479884
 O     9.598731     1.760968    -0.682318
 H     9.908711     1.810314    -1.592695
 H    -7.984908    -4.114371     3.388994
 O    -7.059507    -4.379638     3.400211
 H    -6.930495    -5.035842     2.685709
 H     1.025809    -2.149992     7.018052
 O     1.522733    -2.883684     7.396016
 H     1.737509    -3.471266     6.654635
 H    -3.430609    -3.008827    -6.713367
 O    -3.843202    -3.626672    -6.093715
 H    -4.792007    -3.493730    -6.173138
 H    -8.704173     8.478228     3.729203
 O    -7.913038     9.011025     3.822380
 H    -7.237356     8.423255     4.221503
 H     8.047146    -2.233275    -5.017594
 O     7.127909    -1.963780    -5.044368
 H     6.643275    -2.597601    -4.484833
 H    -4.922975    -4.775026     5.938553
 O    -4.965503    -4.208349     5.143486
 H    -5.727800    -4.467580     4.606106
 N     1.882190    -2.415556    -7.335439
 H     2.452221    -2.560222    -8.160866
 H     1.042398    -1.904264    -7.595661
 H     1.588994    -3.324235    -6.989515
