604
grain_mol83 // -1788.46707772797 // -55.2164374213 // -820.898805669271 // -1022.78470948 // -0.0540104126 // -0.583907423623 // -0.015189212052
 H    -1.769986     0.106075     2.518831
 O    -0.791736     0.129832     2.596767
 H    -0.523974    -0.744128     2.966539
 H    -0.417358    -1.946789    -2.711791
 O    -0.491086    -1.932094    -1.744419
 H    -1.437757    -1.814069    -1.558053
 H    -2.716287     1.927698     0.803234
 O    -2.624441     1.247726     0.114863
 H    -1.839556     1.500798    -0.404141
 H    -3.715339     1.840314    -3.065903
 O    -3.199677     2.144773    -3.848656
 H    -2.293089     2.279989    -3.554383
 H    -0.108661    -0.629466    -0.724791
 O     0.029005     0.131410    -0.127379
 H    -0.405229    -0.104462     0.702862
 H     0.946842    -2.049168    -4.619096
 O     0.007410    -2.208705    -4.409320
 H    -0.079243    -3.173752    -4.474954
 H    -4.911222     2.413842    -1.349191
 O    -4.552086     1.566097    -1.675682
 H    -3.878636     1.317642    -0.999409
 H    -3.506962     3.563847     2.365185
 O    -2.790346     2.927337     2.177700
 H    -2.014652     3.289830     2.643692
 H     2.560803     0.125966    -2.909647
 O     1.951527    -0.481811    -2.442155
 H     1.050646    -0.171787    -2.659660
 H    -1.132757     0.187684    -3.567529
 O    -0.319099     0.669097    -3.306771
 H    -0.562741     1.309207    -2.618085
 H     2.676004    -0.538428     0.637707
 O     2.576578    -1.315844     0.049924
 H     2.313266    -0.975296    -0.826508
 H    -2.850315    -0.433155    -0.519876
 O    -2.988135    -0.942334    -1.329549
 H    -3.802552    -1.468862    -1.229277
 H     2.839491     1.221334    -0.825366
 O     2.025339     1.747361    -0.735504
 H     1.303709     1.117214    -0.526159
 H     0.604835     3.044404    -3.358276
 O     1.521153     2.862983    -3.110380
 H     1.517982     2.448842    -2.228503
 H     0.091953    -3.976654    -0.298699
 O    -0.146403    -4.700796    -0.921518
 H    -0.935588    -5.120863    -0.507854
 H    -6.211556     2.394086     2.948455
 O    -6.265898     2.647959     3.907168
 H    -7.021565     2.147071     4.272532
 H     1.111310    -3.621715     1.537790
 O     0.704630    -3.005979     0.901114
 H     1.389350    -2.366253     0.618098
 H    -2.836213     5.231828    -1.225333
 O    -2.662997     4.463227    -0.649742
 H    -3.554691     4.116524    -0.437326
 H    -5.512195    -1.084350     1.794849
 O    -5.232136    -0.489137     1.067321
 H    -5.347638    -0.990246     0.254218
 H    -0.363959    -2.996310     3.247948
 O    -0.045018    -2.166765     3.641753
 H     0.899808    -2.088268     3.430990
 H     5.264833     0.947360    -1.177253
 O     4.475581     0.434310    -0.952315
 H     4.701135     0.068301    -0.067793
 H     0.766357     2.479118     0.967785
 O     0.757969     2.188682     1.888984
 H     0.137811     1.442370     1.980388
 H     4.449595    -0.635396    -2.258290
 O     4.644317    -1.169127    -3.062291
 H     5.130452    -0.558952    -3.655776
 H     3.091310     3.207795    -1.125649
 O     3.975423     3.597787    -1.125010
 H     4.454180     3.259110    -1.905508
 H    -5.887781    -1.495652    -1.772119
 O    -5.363852    -2.175466    -1.294173
 H    -5.292556    -2.927657    -1.907769
 H    -4.949303    -3.900702     1.499769
 O    -5.629940    -3.277390     1.184756
 H    -5.399747    -3.044660     0.274928
 H     2.742163     1.957323    -3.727018
 O     3.409076     1.259869    -3.895661
 H     3.475192     1.171036    -4.852193
 H    -5.101995     4.140797     3.574313
 O    -4.524073     4.693770     3.037913
 H    -3.991374     5.254507     3.641496
 H     0.664730     0.786972    -4.727772
 O     1.170589     0.630201    -5.551621
 H     1.745439    -0.137888    -5.360642
 H     1.101685     5.684585    -2.546510
 O     1.891562     5.373835    -2.071527
 H     2.438830     4.884930    -2.717519
 H    -2.829046    -3.495222    -1.558879
 O    -2.964585    -3.712740    -0.620570
 H    -3.745726    -4.280433    -0.557580
 H     2.144693     4.931807    -4.762823
 O     1.269875     5.008679    -5.181203
 H     1.248374     4.276296    -5.826732
 H     7.797828     1.740460    -0.962310
 O     7.005593     1.363185    -1.386832
 H     7.357586     0.644698    -1.950163
 H     4.544546     2.778787     0.235952
 O     4.875806     2.462335     1.101073
 H     4.812599     3.245120     1.687151
 H     1.037631    -3.264270    -1.976387
 O     1.889427    -3.147558    -2.422750
 H     1.993977    -2.174541    -2.490668
 H     1.245558     4.590185    -0.794132
 O     0.784232     4.164314    -0.036279
 H     0.112521     4.798181     0.273328
 H    -5.722450     1.154194     1.232292
 O    -6.198999     1.995928     1.378733
 H    -7.134438     1.756803     1.154367
 H    -2.295381    -2.568835     0.439315
 O    -1.811395    -1.970899     1.040969
 H    -0.906141    -2.322549     1.054659
 H    -3.668536    -0.062715     4.326672
 O    -3.660932    -0.144727     5.307754
 H    -4.421169    -0.700452     5.593897
 H    -6.082317    -2.607612     3.409031
 O    -5.628112    -1.749834     3.452523
 H    -4.678133    -1.986811     3.460680
 H    -2.859619    -0.494549    -2.929031
 O    -2.594341    -0.606607    -3.868729
 H    -2.454786    -1.578429    -3.902377
 H    -3.552075    -3.451477    -3.460865
 O    -2.667381    -3.088090    -3.257506
 H    -2.029566    -3.824071    -3.428994
 H     3.204078    -1.397045    -4.165100
 O     2.652543    -1.569361    -4.951926
 H     3.288021    -1.754610    -5.662328
 H     4.701994     1.973552    -6.695250
 O     4.165507     1.155168    -6.664527
 H     3.328885     1.375134    -7.082962
 H    -4.156914     1.322090     5.769175
 O    -4.629607     2.165447     5.987965
 H    -5.192926     2.354201     5.210176
 H    -3.939620     0.071306     2.047060
 O    -3.395954     0.416989     2.775736
 H    -3.303648     1.382403     2.644183
 H    -5.786347     0.548567    -2.230341
 O    -6.337439    -0.134951    -2.663291
 H    -5.913435    -0.285879    -3.530969
 H     1.879898    -4.034806    -3.916721
 O     1.824621    -4.592596    -4.722490
 H     1.480917    -5.441806    -4.373621
 H     4.442956    -3.612233    -0.438285
 O     4.732185    -2.836718     0.090161
 H     3.976308    -2.203712     0.057667
 H    -0.203808     3.004127    -1.006823
 O    -0.956686     2.609817    -1.478240
 H    -1.664140     3.281125    -1.383456
 H     1.823510     4.477065     1.380026
 O     2.281672     4.648302     2.223187
 H     2.082431     3.889173     2.793151
 H     3.728594     1.244910     1.617358
 O     2.952881     0.681561     1.805787
 H     2.185902     1.279008     1.904707
 H     3.104620    -4.064430    -1.858136
 O     3.797300    -4.682612    -1.517118
 H     4.480119    -4.723080    -2.204971
 H     4.928200    -4.023136    -4.305599
 O     5.366516    -3.678452    -3.491242
 H     4.977697    -2.801903    -3.290755
 H    -1.009439     5.192713     1.906953
 O    -1.182769     5.708831     1.085397
 H    -1.824489     5.191655     0.533216
 H    -5.642572     3.285283     0.369833
 O    -5.185625     3.748414    -0.357955
 H    -5.629187     4.599282    -0.553954
 H     4.994322    -3.736044     3.135593
 O     4.242805    -3.579380     2.557649
 H     4.576954    -3.336627     1.665115
 H     5.840173    -1.261074     1.430778
 O     5.450268    -0.366369     1.377219
 H     6.239838     0.208937     1.395771
 H     1.566689    -6.894988    -2.675521
 O     1.394780    -7.187056    -3.603598
 H     2.301112    -7.263377    -3.959935
 H    -7.232136    -3.474605     1.002557
 O    -8.200020    -3.470217     0.803425
 H    -8.656142    -3.232119     1.639614
 H     3.223096    -2.297304     2.944502
 O     2.544635    -1.613725     3.100038
 H     2.774458    -0.834715     2.561765
 H    -1.869350     2.971511     5.004947
 O    -2.579291     3.629284     5.123212
 H    -3.324824     3.152405     5.534771
 H    -0.786643     1.129388     3.983471
 O    -0.657914     1.717702     4.761070
 H     0.185240     2.156333     4.604302
 H     0.297980     3.132196    -7.047501
 O     1.251883     2.935885    -6.916395
 H     1.264628     2.110095    -6.397054
 H     7.137848    -2.670091     4.859131
 O     6.377540    -3.134093     4.433815
 H     5.576168    -2.751180     4.864031
 H     8.021423     1.496208     1.346386
 O     7.928626     0.583336     1.678902
 H     8.408617    -0.006000     1.067968
 H    -4.091739    -0.643796    -4.587466
 O    -5.021337    -0.692305    -4.914055
 H    -5.009284    -0.369756    -5.832635
 H     6.434945    -1.549727    -2.079941
 O     6.841482    -1.985396    -1.325841
 H     6.110165    -2.219868    -0.723613
 H     4.714106    -0.634598     4.495201
 O     5.133290     0.081186     3.988732
 H     5.075953    -0.128843     3.032536
 H     0.032847     3.471707     2.759824
 O    -0.588081     4.149762     3.093684
 H    -0.273959     4.448717     3.968864
 H     8.237239    -1.300539    -0.643778
 O     9.029464    -0.912361    -0.211113
 H     9.722064    -1.585626    -0.257497
 H     9.585656    -3.758789     2.333928
 O     9.289527    -3.613024     1.409086
 H     10.055672    -3.481771     0.839923
 H    -2.407792    -2.356917     4.009758
 O    -3.033070    -2.474312     3.284665
 H    -2.576540    -2.188893     2.453493
 H    -2.161272     0.542639    -6.280108
 O    -2.796968     1.289033    -6.345107
 H    -3.035883     1.512090    -5.421893
 H    -1.196919     3.614654    -5.646109
 O    -1.321519     3.534836    -6.619849
 H    -1.921090     2.773716    -6.725769
 H    -4.661095    -6.205608    -0.805574
 O    -5.123018    -5.434897    -0.445629
 H    -5.891104    -5.279934    -1.038348
 H     2.625226    -5.845378    -1.192918
 O     1.814543    -6.383573    -1.087916
 H     1.057543    -5.740756    -0.993951
 H     3.287084    -4.501483    -5.443506
 O     4.247522    -4.521971    -5.715974
 H     4.371573    -3.795323    -6.342406
 H     7.531430     3.520314     1.902480
 O     7.443014     3.119930     1.028270
 H     6.509098     2.797193     0.993930
 H     6.608117    -3.861828     0.539203
 O     7.086788    -4.687285     0.354548
 H     7.977017    -4.516890     0.721091
 H    -7.530991    -4.430005    -2.204097
 O    -7.310754    -5.350688    -1.934079
 H    -7.935400    -5.579100    -1.219844
 H    -4.295556     7.086570     4.634687
 O    -3.412615     6.731758     4.417594
 H    -2.930158     6.560640     5.240748
 H     7.325947     3.747654     4.663612
 O     7.318264     3.303838     3.805419
 H     7.563038     2.376509     3.986911
 H    -5.763755     1.318803     6.932204
 O    -6.537645     0.799072     7.251043
 H    -6.271706    -0.131005     7.160064
 H    -0.630850    -4.972506    -2.586450
 O    -0.858163    -4.921129    -3.535694
 H    -1.448662    -5.672432    -3.739584
 H     6.736908     0.426601     4.331971
 O     7.708701     0.605769     4.277315
 H     7.919092     0.515109     3.321128
 H     4.750097    -6.814877    -3.529164
 O     4.053941    -7.015190    -4.192892
 H     4.186985    -6.380462    -4.904817
 H    -5.925747    -2.083576    -5.112762
 O    -6.592045    -2.807048    -5.140738
 H    -7.421747    -2.372841    -5.460037
 H    -7.633357     1.045487     6.027224
 O    -8.193389     1.346119     5.267498
 H    -8.798665     1.997438     5.625798
 H    -5.159477     5.934976     2.048314
 O    -5.388323     6.835601     1.740508
 H    -4.526818     7.300203     1.697214
 H     5.794201     1.394677    -4.058413
 O     6.022250     0.583007    -4.562528
 H     5.529345     0.641899    -5.383578
 H    -5.796621     6.560130     0.100290
 O    -5.827483     6.288145    -0.840672
 H    -4.936497     6.499605    -1.191280
 H    -0.320497    -7.546974    -2.741897
 O    -1.026280    -7.636908    -2.091909
 H    -0.636768    -7.941597    -1.263455
 H    -2.519398    -1.267476     5.630227
 O    -1.872437    -1.991913     5.806124
 H    -1.034680    -1.522728     5.979522
 H     7.487442    -4.593868    -1.310495
 O     7.600390    -4.635172    -2.284608
 H     6.833627    -4.161854    -2.650528
 H    -8.849993    -2.968113    -3.082577
 O    -7.929383    -2.880045    -2.747499
 H    -7.380767    -2.743953    -3.539052
 H     8.798818    -3.481102    -2.730262
 O     9.436106    -2.773623    -2.962572
 H     8.943979    -1.934735    -2.906519
 H    -5.140215    -5.044154    -3.292970
 O    -5.095317    -4.078252    -3.201203
 H    -5.578702    -3.713616    -3.954921
 H    -3.615602     3.906345    -3.681698
 O    -3.318723     4.775791    -3.366228
 H    -3.601822     5.444136    -3.991353
 H    -0.207474     4.581967    -4.245146
 O    -0.867885     3.906415    -4.009238
 H    -1.647726     4.376915    -3.651562
 H    -1.959930    -3.761842     5.589242
 O    -2.260954    -4.635704     5.294520
 H    -3.193797    -4.494990     5.054731
 H    -2.332959     8.250574    -4.124707
 O    -2.544843     7.296510    -4.181479
 H    -2.351972     7.011504    -5.101952
 H    -2.902937     7.526965     2.909240
 O    -2.830797     7.674586     1.951317
 H    -2.240328     6.961995     1.632278
 H     4.842100     1.753956     4.125947
 O     4.694575     2.700354     3.910646
 H     5.571031     3.041394     3.650383
 H     7.888850    -1.488549     6.339715
 O     8.325606    -1.733570     5.500553
 H     8.289114    -0.910328     4.974367
 H     6.039586    -1.146074     7.844727
 O     6.747606    -0.650720     7.421157
 H     6.294486     0.083365     6.949203
 H    -1.700488     5.372629    -6.702834
 O    -1.825315     6.323035    -6.556309
 H    -0.951391     6.734630    -6.678765
 H    -8.175929     0.114001     4.008709
 O    -7.998456    -0.463030     3.252643
 H    -7.096870    -0.812624     3.368691
 H    -8.509035     0.256000     0.243397
 O    -8.530978     0.931911     0.941308
 H    -8.506888     0.428359     1.772733
 H     0.854333    -0.222849     5.956992
 O     0.022253    -0.263124     6.483841
 H    -0.475068     0.497966     6.137008
 H    -0.401518     6.958992    -1.978242
 O    -0.364271     6.527939    -2.855513
 H    -1.218638     6.711218    -3.307728
 H     0.521309    -7.958336     1.018193
 O    -0.387091    -8.209300     0.791121
 H    -0.837890    -8.223208     1.663842
 H     2.060572     2.943395     5.126700
 O     2.064951     2.613766     4.203023
 H     3.005077     2.616686     3.946397
 H    -8.026216    -5.670711    -5.186664
 O    -7.131905    -5.543377    -5.543218
 H    -6.978658    -4.587568    -5.513349
 H     2.986853    -7.510497     1.469484
 O     2.103113    -7.139877     1.404979
 H     2.021919    -6.852530     0.460336
 H     3.358820     5.305954    -7.673099
 O     3.503161     4.338123    -7.744164
 H     2.669807     3.908034    -7.496478
 H    -0.447385     7.033788     0.190645
 O    -0.136267     7.705299    -0.439523
 H    -0.805611     8.404244    -0.422318
 H     4.490523     3.903885     5.050343
 O     4.412812     4.589504     5.756901
 H     5.296131     4.662939     6.127893
 H     7.695608     3.105220     6.667329
 O     7.175037     3.943656     6.549643
 H     7.669545     4.624187     7.004975
 H     3.984642    -8.053164    -0.595529
 O     4.509197    -7.490530    -0.002979
 H     4.956856    -6.879855    -0.610661
 H     6.657013    -6.106981    -2.362377
 O     5.883493    -6.696750    -2.283673
 H     6.214644    -7.605442    -2.165907
 H    -9.002295    -1.847981     3.163930
 O    -9.495160    -2.673418     2.971883
 H    -10.230443    -2.391377     2.401378
 H    -2.590089     8.842707     0.595288
 O    -2.447776     9.151668    -0.314895
 H    -3.239744     9.710656    -0.512156
 H     8.128822     0.982204     7.322536
 O     8.475258     1.645447     6.715755
 H     8.320793     1.274142     5.829943
 H    -2.294871     5.554427     7.431854
 O    -2.013814     5.723631     6.533755
 H    -2.215544     4.891395     6.010191
 H    -6.357607    -6.478019    -2.946696
 O    -5.690727    -6.714596    -3.617385
 H    -6.131457    -6.464526    -4.458611
 H     6.770715    -2.683731     2.837530
 O     6.892892    -2.475172     1.892359
 H     7.838941    -2.568234     1.707826
 H     2.389816     6.662526    -1.152362
 O     2.654054     7.429456    -0.596124
 H     1.814319     7.791547    -0.287273
 H    -4.275579    -7.409637    -2.454441
 O    -3.704629    -7.416434    -1.677099
 H    -2.798416    -7.572414    -1.996191
 H     0.926075     6.429463    -5.941518
 O     0.761478     7.280052    -6.411347
 H     0.786410     7.950403    -5.697707
 H    -8.297426    -1.604442    -1.519879
 O    -8.584039    -1.285768    -0.649099
 H    -8.360494    -2.046673    -0.067693
 H    -3.209381     7.057865    -2.512672
 O    -3.305531     6.929340    -1.559332
 H    -2.994070     7.752951    -1.128838
 H     2.783969    -4.434616     2.582679
 O     1.865383    -4.767741     2.608038
 H     1.911960    -5.678375     2.251823
 H    -8.856036    -0.878578    -4.916461
 O    -8.785496    -1.495159    -5.681921
 H    -8.485929    -0.941485    -6.423518
 H     7.525650    -0.289486    -3.889530
 O     8.173554    -0.299420    -3.166026
 H     8.852944     0.349148    -3.399224
 H     4.283221     6.650617    -0.408841
 O     4.985124     5.999272    -0.568627
 H     4.516901     5.155767    -0.756918
 H    -7.964803     0.099877    -3.154014
 O    -8.864658     0.113692    -3.541092
 H    -9.465997    -0.088524    -2.823038
 H     6.147301     3.593271    -3.459763
 O     5.666917     2.829871    -3.088980
 H     6.252078     2.437518    -2.398739
 H    -1.404055    -6.862063     0.500935
 O    -2.009870    -6.123558     0.287391
 H    -2.615156    -6.457916    -0.381202
 H    -4.035133    -7.662331     1.450034
 O    -4.252934    -7.358757     2.334272
 H    -4.030500    -6.396940     2.347498
 H    -2.912243    -4.961394     1.481190
 O    -3.620295    -4.805278     2.126640
 H    -3.329407    -4.059135     2.689640
 H     5.211336    -5.968090     5.150985
 O     4.457918    -5.746868     4.600281
 H     4.751613    -5.887893     3.684716
 H    -9.641472    -6.270369    -3.505280
 O    -9.650668    -5.860962    -4.400452
 H    -10.304744    -6.346031    -4.903824
 H     6.226101    -5.631895     1.517284
 O     5.708732    -6.185358     2.138004
 H     5.246200    -6.803444     1.559979
 H    -1.427385    -6.562998     2.961306
 O    -1.578064    -7.518399     3.060574
 H    -2.539874    -7.631434     3.067688
 H    -10.125399    -4.131742    -4.200310
 O    -10.249300    -3.193686    -3.978970
 H    -10.010622    -2.683001    -4.764630
 H     0.530359     7.795632    -3.633908
 O     0.857860     8.604914    -4.079255
 H     1.761193     8.754995    -3.731066
 H    -9.192167    -7.951412    -2.028624
 O    -9.773199    -7.190448    -2.069944
 H    -9.646955    -6.711070    -1.231167
 H     2.101001     0.896624     4.566239
 O     2.190014     0.069975     5.078055
 H     2.392018    -0.646521     4.440140
 H    -6.567420     0.081304    -7.551887
 O    -7.523293     0.188492    -7.426926
 H    -7.666901     1.106103    -7.192031
 H     6.252533     3.461991    -7.459414
 O     5.664993     3.443825    -6.703966
 H     4.821977     3.895134    -7.019309
 H    -5.234930     10.387361     0.153962
 O    -4.745554     10.358564    -0.679059
 H    -5.337839     9.849623    -1.267157
 H    -0.776357    -1.253360    -5.629181
 O    -1.027298    -0.691113    -6.400825
 H    -0.222344    -0.157281    -6.532053
 H     4.717487    -0.837369    -6.885763
 O     4.793370    -1.757043    -6.608985
 H     5.642273    -1.837155    -6.139163
 H     2.428884    -8.972470    -2.118041
 O     3.386133    -8.910699    -2.122866
 H     3.619029    -8.368028    -2.890201
 H    -4.245979    -0.812558    -7.823258
 O    -4.731901    -0.045549    -7.509294
 H    -4.045342     0.607533    -7.226929
 H     1.397280     4.097697     6.501542
 O     2.138100     3.507196     6.740888
 H     2.956131     4.015661     6.589604
 H    -11.365521    -2.493976     0.219236
 O    -10.939334    -1.834736     0.767277
 H    -10.204943    -1.477931     0.236840
 H    -7.374972     2.510059     7.540998
 O    -7.839752     3.349570     7.413591
 H    -7.952588     3.735374     8.281741
 H     6.101392    -9.138534    -0.644158
 O     6.177203    -9.306864    -1.588425
 H     5.289347    -9.544670    -1.883110
 H     6.656093     5.140838    -1.041795
 O     7.287709     4.455639    -1.284024
 H     7.475408     3.966074    -0.457331
 H    -5.377845    -2.448308     6.041524
 O    -5.382557    -1.652981     6.618500
 H    -4.756198    -1.874401     7.329205
 H     2.645802     1.884563     7.420481
 O     3.104934     1.033563     7.378686
 H     2.777884     0.605593     6.559593
 H    -2.712551    -2.407094     7.245066
 O    -3.198910    -2.490266     8.093599
 H    -2.573131    -2.132295     8.739903
 H     5.816534     2.363695     6.578337
 O     5.519652     1.479384     6.356139
 H     4.634013     1.359529     6.758878
 H     1.950399    -4.117717     4.394593
 O     2.436990    -4.014875     5.225026
 H     3.128231    -4.698572     5.177223
 H     10.399947    -2.894618    -1.627046
 O     10.897395    -2.861659    -0.765483
 H     11.826517    -2.854262    -0.989153
 H     3.956349     8.100273    -3.288504
 O     3.284456     8.701744    -2.944568
 H     3.108776     8.401735    -2.034055
 H    -8.223171    -6.323664     0.795366
 O    -8.866854    -5.928351     0.185646
 H    -8.802319    -4.965843     0.401356
 H    -0.643916     9.518285    -3.730830
 O    -1.579676     9.705350    -3.525985
 H    -1.641878     9.876196    -2.583711
 H     4.151833     3.787682    -3.937229
 O     3.607905     4.578403    -4.000349
 H     4.177962     5.357702    -3.834529
 H     5.233172     6.450617    -2.277792
 O     5.163167     6.608413    -3.239430
 H     5.940050     6.219613    -3.661417
 H    -0.318467     5.543523     5.850672
 O     0.395677     5.035475     5.440318
 H     1.092431     5.654913     5.115099
 H     3.267712     5.836487     4.884306
 O     2.507820     6.262684     4.460766
 H     2.449558     5.883393     3.569523
 H    -7.091453     9.059885    -0.592373
 O    -6.805261     8.784958    -1.473333
 H    -6.582886     7.840550    -1.394398
 H    -1.345022    -4.784702     3.903740
 O    -0.897860    -4.749835     3.027119
 H     0.018836    -5.014971     3.138695
 H     4.232138    -1.810918     6.390568
 O     4.227840    -2.018492     5.431356
 H     3.506648    -2.666636     5.296742
 H     7.061730    -6.022966     3.541946
 O     7.443947    -5.618425     4.330737
 H     6.979009    -4.767197     4.436979
 H     8.997654    -4.669073     4.204457
 O     9.636641    -3.953782     4.025695
 H     9.379778    -3.218117     4.595180
 H     3.112437     7.479208    -8.428430
 O     3.114718     6.988228    -7.608000
 H     2.244810     7.170964    -7.176256
 H    -0.581541    -0.831196     8.225516
 O    -0.793206    -1.425751     8.958812
 H    -0.089333    -2.080466     8.967109
 H     8.403868     4.302287    -2.472819
 O     9.079865     4.279198    -3.198431
 H     9.809963     4.806557    -2.874115
 H     6.415307     4.364832    -5.380847
 O     6.744752     4.801025    -4.572737
 H     7.690757     4.639573    -4.482182
 H     10.660469     1.849621    -4.261815
 O     9.925777     1.781520    -3.653958
 H     9.554412     2.684898    -3.538351
 H     3.149963    -1.987370     8.058398
 O     3.987611    -1.485271     8.029939
 H     3.719721    -0.554035     8.057799
 H    -1.730121    -3.594092    -7.444379
 O    -2.381320    -2.851739    -7.538182
 H    -1.872340    -2.051764    -7.295952
 H     5.160579     5.450361     1.283070
 O     4.952061     4.938415     2.074761
 H     3.983409     4.979955     2.175872
 H    -3.634317    -6.816808    -4.564613
 O    -2.929353    -6.208043    -4.812367
 H    -3.396772    -5.416201    -5.184212
 H    -6.489430     6.524457     4.656317
 O    -6.046253     7.327427     4.325457
 H    -5.918543     7.189329     3.360623
 H    -7.398398     4.572531     5.987645
 O    -7.136461     4.953700     5.140192
 H    -6.900458     4.192427     4.585654
 H    -7.160753     9.717429     2.009066
 O    -6.916943     10.057918     1.124031
 H    -7.378136     10.891967     1.028583
 H    -6.018580    -6.753076     2.167507
 O    -6.627777    -6.141064     1.726428
 H    -6.090266    -5.742218     1.008927
 H    -3.786180    -4.207915     7.952590
 O    -4.029512    -5.072453     7.575418
 H    -3.242968    -5.378493     7.109228
 H     9.558827     0.731809    -0.575946
 O     9.615959     1.675329    -0.812824
 H     9.921938     1.690702    -1.725750
 H    -7.983964    -3.908369     3.579879
 O    -7.060821    -4.181503     3.594901
 H    -6.942491    -4.862731     2.902289
 H     1.066559    -1.893615     7.077964
 O     1.561410    -2.617220     7.477527
 H     1.765241    -3.232558     6.755965
 H    -3.521049    -3.494355    -6.467297
 O    -4.134810    -3.980589    -5.851777
 H    -4.897696    -4.233647    -6.382242
 H    -8.600307     8.693003     3.483287
 O    -7.804336     9.222164     3.553134
 H    -7.130718     8.643047     3.967936
 H     7.983642    -2.440802    -5.018537
 O     7.059713    -2.187885    -5.055420
 H     6.591321    -2.790736    -4.448311
 H    -4.910568    -4.506251     6.129953
 O    -4.952633    -3.967761     5.315650
 H    -5.721503    -4.237793     4.792919
 N    -0.683885    -5.046118    -6.984836
 H     0.111080    -4.835463    -6.385713
 H    -0.318322    -5.542065    -7.791983
 H    -1.266466    -5.705250    -6.471568
