604
grain_mol8 // -1788.466672227325 // -55.2070550111 // -820.888753588425 // -1022.78497365 // -0.0518507102 // -0.584077917199 // -0.014959735183
 H    -1.768694    -0.166606     2.462464
 O    -0.791186    -0.144743     2.547582
 H    -0.517859    -1.054376     2.809534
 H    -0.410683    -1.656731    -2.967988
 O    -0.480258    -1.722144    -2.003278
 H    -1.427114    -1.645196    -1.800093
 H    -2.738516     1.821346     0.943952
 O    -2.644286     1.219040     0.187086
 H    -1.858651     1.526608    -0.300157
 H    -3.741881     2.126155    -2.914005
 O    -3.229537     2.512316    -3.662591
 H    -2.325016     2.628152    -3.353457
 H    -0.107657    -0.537573    -0.841881
 O     0.016047     0.160863    -0.169976
 H    -0.405225    -0.173019     0.632904
 H     0.938545    -1.620733    -4.897891
 O     0.000826    -1.811226    -4.730578
 H    -0.092060    -2.772343    -4.812671
 H    -4.940433     2.507852    -1.145502
 O    -4.574959     1.702328    -1.560171
 H    -3.897566     1.390285    -0.913972
 H    -3.541218     3.279447     2.667988
 O    -2.819261     2.672837     2.414337
 H    -2.046045     2.991119     2.915513
 H     2.548888     0.464118    -2.939056
 O     1.945456    -0.192010    -2.534889
 H     1.041392     0.126986    -2.720360
 H    -1.145874     0.555895    -3.582468
 O    -0.339347     1.021879    -3.278728
 H    -0.585647     1.579953    -2.522764
 H     2.676731    -0.563238     0.521628
 O     2.587737    -1.274846    -0.144625
 H     2.316476    -0.850413    -0.980336
 H    -2.849195    -0.394040    -0.617539
 O    -2.990895    -0.808629    -1.478925
 H    -3.793155    -1.359159    -1.427694
 H     2.820521     1.338604    -0.751496
 O     2.001627     1.845585    -0.608352
 H     1.286660     1.189671    -0.464302
 H     0.564690     3.392787    -3.078970
 O     1.483671     3.196965    -2.853711
 H     1.488072     2.692374    -2.019876
 H     0.126292    -3.914657    -0.762364
 O    -0.112616    -4.565244    -1.465193
 H    -0.893364    -5.035329    -1.095842
 H    -6.234456     2.030563     3.128108
 O    -6.290426     2.183491     4.107802
 H    -7.040398     1.639807     4.419704
 H     1.122170    -3.738067     1.091637
 O     0.714684    -3.057939     0.513396
 H     1.401417    -2.394431     0.308868
 H    -2.891681     5.317204    -0.729136
 O    -2.710691     4.494172    -0.237477
 H    -3.598551     4.118568    -0.061739
 H    -5.504464    -1.302935     1.620317
 O    -5.234063    -0.632774     0.957129
 H    -5.342562    -1.050144     0.097298
 H    -0.231194    -3.444245     2.904123
 O    -0.034700    -2.575850     3.311545
 H     0.915684    -2.433412     3.142112
 H     5.249748     1.125321    -1.130706
 O     4.463645     0.587446    -0.959895
 H     4.692828     0.130303    -0.119785
 H     0.738366     2.382165     1.162890
 O     0.731517     2.000552     2.050173
 H     0.122406     1.239967     2.063899
 H     4.445375    -0.343583    -2.369121
 O     4.644455    -0.788147    -3.224466
 H     5.125398    -0.116401    -3.751245
 H     3.054742     3.345925    -0.843694
 O     3.933869     3.745242    -0.804269
 H     4.415880     3.491925    -1.614630
 H    -5.882598    -1.346246    -1.971156
 O    -5.354620    -2.068427    -1.566694
 H    -5.270255    -2.751681    -2.254022
 H    -4.915892    -4.069000     1.035022
 O    -5.604506    -3.424930     0.785057
 H    -5.374518    -3.096341    -0.094540
 H     2.711521     2.372257    -3.563731
 O     3.384203     1.702537    -3.804720
 H     3.451757     1.712161    -4.765026
 H    -5.139709     3.712546     3.931486
 O    -4.568440     4.324195     3.455036
 H    -4.039201     4.823435     4.113185
 H     0.634671     1.287158    -4.682029
 O     1.124026     1.212696    -5.527186
 H     1.727672     0.450551    -5.406862
 H     1.040774     5.940091    -2.000016
 O     1.834146     5.589718    -1.560084
 H     2.385076     5.174547    -2.252874
 H    -2.797355    -3.336833    -1.970072
 O    -2.947146    -3.632976    -1.056420
 H    -3.710949    -4.226475    -1.056194
 H     2.087138     5.430938    -4.281967
 O     1.211389     5.542631    -4.690953
 H     1.196471     4.880544    -5.408021
 H     7.774501     1.914738    -0.837920
 O     6.984928     1.577747    -1.299513
 H     7.341731     0.923114    -1.933500
 H     4.513756     2.793854     0.464248
 O     4.850148     2.393517     1.291656
 H     4.779491     3.109915     1.956262
 H     1.058753    -3.023256    -2.351212
 O     1.914143    -2.849587    -2.771332
 H     2.003151    -1.873812    -2.750617
 H     1.196840     4.671013    -0.370229
 O     0.739864     4.164779     0.339053
 H     0.063417     4.756970     0.713590
 H    -5.736540     0.979778     1.292754
 O    -6.220658     1.797592     1.525161
 H    -7.154074     1.574514     1.278223
 H    -2.274303    -2.608819     0.117573
 O    -1.797674    -2.069564     0.776492
 H    -0.888528    -2.417314     0.760634
 H    -3.666330    -0.532550     4.242398
 O    -3.658211    -0.714359     5.210028
 H    -4.412297    -1.304322     5.436815
 H    -6.058417    -2.990598     3.066264
 O    -5.612573    -2.137729     3.198497
 H    -4.659808    -2.364579     3.181571
 H    -2.864137    -0.204836    -3.023062
 O    -2.604669    -0.221643    -3.971439
 H    -2.448519    -1.183989    -4.098263
 H    -3.453925    -3.157627    -3.900314
 O    -2.592677    -2.790288    -3.640321
 H    -1.902250    -3.413290    -3.941891
 H     3.212154    -0.906190    -4.344137
 O     2.658484    -0.984417    -5.144510
 H     3.289607    -1.115083    -5.870433
 H     4.668553     2.713461    -6.511967
 O     4.137116     1.893133    -6.567651
 H     3.298757     2.150128    -6.960375
 H    -4.166190     0.690461     5.821164
 O    -4.646571     1.502209     6.126975
 H    -5.212083     1.765656     5.373022
 H    -3.941888    -0.165540     1.989084
 O    -3.402085     0.108251     2.750152
 H    -3.317324     1.082556     2.718511
 H    -5.799975     0.736078    -2.211554
 O    -6.345169     0.098130    -2.716974
 H    -5.919585     0.047708    -3.594720
 H     1.877102    -3.563620    -4.348278
 O     1.818392    -3.977174    -5.232094
 H     1.414736    -4.847564    -5.082879
 H     4.469837    -3.494118    -0.869306
 O     4.754366    -2.772997    -0.265412
 H     3.990015    -2.149905    -0.229626
 H    -0.238344     3.101517    -0.746318
 O    -0.988510     2.753718    -1.257030
 H    -1.702002     3.403814    -1.089317
 H     1.778795     4.337582     1.780254
 O     2.236175     4.425781     2.636425
 H     2.045378     3.609704     3.125066
 H     3.714166     1.119425     1.679326
 O     2.943781     0.533462     1.809393
 H     2.171474     1.108841     1.971329
 H     3.135711    -3.812011    -2.318051
 O     3.838076    -4.453963    -2.049075
 H     4.513731    -4.416656    -2.743745
 H     4.959668    -3.499121    -4.759575
 O     5.393282    -3.232303    -3.912258
 H     4.989832    -2.388853    -3.622197
 H    -1.058785     4.969634     2.380292
 O    -1.239233     5.567076     1.617156
 H    -1.876417     5.103268     1.014909
 H    -5.676948     3.189157     0.655455
 O    -5.226845     3.729209    -0.021883
 H    -5.677560     4.592344    -0.126418
 H     5.048489    -3.969483     2.669592
 O     4.291966    -3.764994     2.115883
 H     4.611407    -3.429046     1.248963
 H     5.845432    -1.335720     1.231788
 O     5.449382    -0.443295     1.272871
 H     6.234376     0.132922     1.350162
 H     1.592926    -6.471622    -3.435645
 O     1.408568    -6.638100    -4.385849
 H     2.282028    -6.690144    -4.800792
 H    -7.204190    -3.614113     0.583751
 O    -8.172683    -3.596978     0.386282
 H    -8.629650    -3.451347     1.243131
 H     3.235315    -2.551238     2.635952
 O     2.560227    -1.886537     2.866323
 H     2.780933    -1.060176     2.401732
 H    -1.894606     2.431170     5.230543
 O    -2.610397     3.066571     5.417436
 H    -3.350593     2.542404     5.777783
 H    -0.795735     0.711530     4.024377
 O    -0.673277     1.221007     4.857152
 H     0.166429     1.679885     4.746487
 H     0.255051     3.861493    -6.739411
 O     1.209800     3.655875    -6.632382
 H     1.226305     2.779827    -6.202099
 H     7.162972    -3.082266     4.496457
 O     6.406001    -3.509787     4.029073
 H     5.601884    -3.173547     4.494127
 H     8.003989     1.434573     1.433289
 O     7.920762     0.491686     1.670589
 H     8.403673    -0.027401     1.000903
 H    -4.096704    -0.191192    -4.684220
 O    -5.026607    -0.212034    -5.018643
 H    -5.016419     0.212393    -5.898278
 H     6.439634    -1.256926    -2.290323
 O     6.851979    -1.758426    -1.581682
 H     6.122250    -2.064849    -1.009938
 H     4.719869    -1.040924     4.346101
 O     5.133325    -0.272735     3.916948
 H     5.074717    -0.383209     2.944162
 H    -0.001623     3.178790     3.048575
 O    -0.627448     3.813873     3.451415
 H    -0.314472     4.022230     4.352807
 H     8.241497    -1.137306    -0.835272
 O     9.031505    -0.789232    -0.365315
 H     9.729424    -1.448229    -0.482149
 H     9.618182    -3.879767     1.869557
 O     9.318888    -3.641016     0.965761
 H     10.082215    -3.444693     0.411613
 H    -2.380158    -2.776939     3.683356
 O    -3.011803    -2.817485     2.955231
 H    -2.555411    -2.445625     2.157411
 H    -2.176525     1.167668    -6.232472
 O    -2.804353     1.916931    -6.228162
 H    -3.053786     2.048391    -5.289694
 H    -1.242463     4.184815    -5.295306
 O    -1.368074     4.204844    -6.272614
 H    -1.959215     3.452845    -6.456095
 H    -4.606082    -6.120530    -1.502081
 O    -5.077963    -5.397803    -1.061714
 H    -5.847275    -5.189079    -1.634136
 H     2.670408    -5.654659    -1.845431
 O     1.865331    -6.207268    -1.791877
 H     1.102803    -5.583336    -1.639144
 H     3.270104    -3.888514    -5.902866
 O     4.229503    -3.866557    -6.172567
 H     4.341146    -3.096542    -6.736598
 H     7.495940     3.385353     2.197194
 O     7.409950     3.077939     1.285925
 H     6.479082     2.751078     1.218810
 H     6.635985    -3.824396     0.073184
 O     7.123271    -4.622290    -0.191810
 H     8.012404    -4.480617     0.188639
 H    -7.503181    -4.232688    -2.699107
 O    -7.274108    -5.173459    -2.529674
 H    -7.892783    -5.482965    -1.840834
 H    -4.358643     6.539934     5.291671
 O    -3.472924     6.218057     5.038074
 H    -2.987620     5.966140     5.838550
 H     7.292304     3.322833     4.967429
 O     7.288188     2.970903     4.067680
 H     7.540738     2.031722     4.151523
 H    -5.771470     0.552498     6.978063
 O    -6.540334    -0.004473     7.241864
 H    -6.265606    -0.917614     7.054911
 H    -0.477494    -4.643709    -3.187187
 O    -0.648772    -4.496124    -4.135726
 H    -1.243342    -5.191591    -4.444884
 H     6.732660     0.048997     4.292601
 O     7.703042     0.241988     4.257212
 H     7.912972     0.253177     3.296623
 H     4.798650    -6.354973    -4.276039
 O     4.103759    -6.496343    -4.954532
 H     4.225831    -5.790773    -5.598413
 H    -5.926446    -1.541258    -5.341930
 O    -6.542899    -2.297995    -5.493469
 H    -7.396769    -1.862223    -5.748635
 H    -7.639309     0.356824     6.050875
 O    -8.203801     0.729002     5.326763
 H    -8.813847     1.334532     5.751207
 H    -5.215992     5.655032     2.600341
 O    -5.453520     6.580507     2.387101
 H    -4.596237     7.054918     2.392145
 H     5.768433     1.874525    -3.951568
 O     6.005274     1.122759    -4.537392
 H     5.509063     1.258620    -5.347066
 H    -5.861744     6.472797     0.728108
 O    -5.891639     6.300022    -0.236143
 H    -5.003002     6.554893    -0.563073
 H    -0.270676    -7.213007    -3.566195
 O    -0.968788    -7.377228    -2.921457
 H    -0.566174    -7.762639    -2.134584
 H    -2.504238    -1.855309     5.412332
 O    -1.852494    -2.588675     5.516267
 H    -1.016882    -2.133741     5.731493
 H     7.520451    -4.350866    -1.840921
 O     7.635095    -4.287284    -2.813274
 H     6.860748    -3.790240    -3.129491
 H    -8.834063    -2.698467    -3.429967
 O    -7.911606    -2.635811    -3.091552
 H    -7.369418    -2.403846    -3.860923
 H     8.820206    -3.085851    -3.137105
 O     9.451711    -2.352194    -3.293507
 H     8.951108    -1.528627    -3.151625
 H    -5.096489    -4.710418    -3.854108
 O    -5.060498    -3.755913    -3.672767
 H    -5.582774    -3.325029    -4.360574
 H    -3.664173     4.246619    -3.310990
 O    -3.373070     5.080266    -2.906841
 H    -3.662876     5.808701    -3.457357
 H    -0.260746     5.007864    -3.801722
 O    -0.916581     4.306259    -3.640986
 H    -1.698719     4.729301    -3.232749
 H    -1.972078    -4.317345     5.166945
 O    -2.292669    -5.175193     4.830737
 H    -3.220458    -4.966319     4.596800
 H    -2.420042     8.624603    -3.300220
 O    -2.624311     7.679932    -3.456404
 H    -2.429277     7.494236    -4.401384
 H    -2.972787     7.169832     3.620056
 O    -2.903648     7.416585     2.682518
 H    -2.306956     6.746260     2.291235
 H     4.825745     1.372449     4.226000
 O     4.669705     2.335266     4.112132
 H     5.542373     2.709230     3.887131
 H     7.905375    -2.052397     6.090747
 O     8.343514    -2.205358     5.230764
 H     8.298173    -1.332470     4.792349
 H     6.054581    -1.885658     7.623996
 O     6.757935    -1.342493     7.254935
 H     6.297697    -0.567841     6.860857
 H    -1.763805     6.036878    -6.163565
 O    -1.898141     6.965792    -5.920291
 H    -1.027920     7.396032    -5.997803
 H    -8.176449    -0.365533     3.946878
 O    -7.995242    -0.859554     3.134902
 H    -7.090043    -1.210621     3.213255
 H    -8.516504     0.162935     0.218044
 O    -8.544406     0.762949     0.981750
 H    -8.513298     0.176601     1.756863
 H     0.859844    -0.820130     5.845168
 O     0.028797    -0.921746     6.366328
 H    -0.476044    -0.133990     6.099209
 H    -0.473097     7.134525    -1.301258
 O    -0.434032     6.797660    -2.218874
 H    -1.290900     7.019208    -2.648227
 H     0.557639    -8.257639     0.052174
 O    -0.374532    -8.340364    -0.211959
 H    -0.834178    -8.415587     0.661970
 H     2.035240     2.426954     5.346850
 O     2.040808     2.197213     4.393695
 H     2.980720     2.232047     4.138717
 H    -7.999273    -5.161107    -5.788592
 O    -7.104354    -5.000428    -6.130217
 H    -6.950566    -4.052208    -6.026429
 H     3.066737    -7.649242     0.511433
 O     2.148858    -7.346291     0.561248
 H     2.037304    -6.910479    -0.323918
 H     3.292982     6.116150    -7.139329
 O     3.445380     5.162462    -7.311867
 H     2.617171     4.701178    -7.107465
 H    -0.516890     6.983603     0.863565
 O    -0.213424     7.719639     0.305761
 H    -0.888707     8.407032     0.396583
 H     4.456029     3.411859     5.369777
 O     4.373245     4.020206     6.143569
 H     5.256443     4.062645     6.519637
 H     7.670594     2.479584     6.893407
 O     7.142241     3.320930     6.864312
 H     7.631775     3.955098     7.386935
 H     4.048243    -7.897515    -1.484576
 O     4.573839    -7.399073    -0.837461
 H     5.010251    -6.721580    -1.379023
 H     6.704970    -5.755754    -3.041633
 O     5.937217    -6.356842    -3.020789
 H     6.275275    -7.270090    -3.002060
 H    -8.986091    -2.236806     2.903665
 O    -9.471864    -3.042141     2.626463
 H    -10.210987    -2.708586     2.089866
 H    -2.675332     8.721087     1.455328
 O    -2.537509     9.124230     0.581990
 H    -3.334730     9.693439     0.444507
 H     8.124068     0.304655     7.324274
 O     8.464175     1.030236     6.789555
 H     8.311176     0.751731     5.869986
 H    -2.340176     4.743875     7.913192
 O    -2.062946     5.008486     7.037225
 H    -2.256848     4.232830     6.430216
 H    -6.315915    -6.181721    -3.648721
 O    -5.650830    -6.342307    -4.342792
 H    -6.094902    -6.013265    -5.154028
 H     6.795564    -2.885850     2.484503
 O     6.914296    -2.579399     1.566665
 H     7.860050    -2.646543     1.370597
 H     2.321728     6.780030    -0.511833
 O     2.579319     7.488331     0.120135
 H     1.736744     7.807792     0.465952
 H    -4.211894    -7.143676    -3.262301
 O    -3.646952    -7.230427    -2.485879
 H    -2.738091    -7.333232    -2.821210
 H     0.853214     7.032015    -5.298432
 O     0.679255     7.925072    -5.677316
 H     0.699779     8.517985    -4.897868
 H    -8.290695    -1.500293    -1.729327
 O    -8.579444    -1.278566    -0.830382
 H    -8.347305    -2.093638    -0.331000
 H    -3.282857     7.263710    -1.820474
 O    -3.376873     7.035571    -0.885802
 H    -3.071977     7.812478    -0.371750
 H     2.889925    -4.599776     1.888284
 O     1.971738    -4.933381     1.881075
 H     2.044607    -5.827921     1.484125
 H    -8.855245    -0.445395    -5.036944
 O    -8.770572    -0.980602    -5.860351
 H    -8.487603    -0.345078    -6.541377
 H     7.516646     0.192810    -3.959014
 O     8.165127     0.118030    -3.239849
 H     8.837668     0.793388    -3.406908
 H     4.215978     6.708485     0.225134
 O     4.923533     6.084122    -0.002567
 H     4.462882     5.260061    -0.276580
 H    -7.976178     0.366159    -3.178938
 O    -8.875286     0.402676    -3.566210
 H    -9.475344     0.132186    -2.869856
 H     6.103633     4.002152    -3.126220
 O     5.629489     3.200685    -2.837309
 H     6.219334     2.741745    -2.193270
 H    -1.345286    -6.873985    -0.267727
 O    -1.965235    -6.127964    -0.400148
 H    -2.557967    -6.395964    -1.108808
 H    -3.968915    -7.794488     0.592016
 O    -4.184345    -7.588016     1.504575
 H    -3.972485    -6.629929     1.616657
 H    -2.868778    -5.105793     0.905020
 O    -3.576907    -5.021263     1.564251
 H    -3.291039    -4.333643     2.200207
 H     5.393178    -6.544707     4.386277
 O     4.541310    -6.381636     3.957117
 H     4.787877    -6.294929     3.016894
 H    -9.597241    -5.948732    -4.185244
 O    -9.615245    -5.444952    -5.031230
 H    -10.258460    -5.886934    -5.585795
 H     6.271456    -5.688753     0.866811
 O     5.760499    -6.309842     1.426056
 H     5.303436    -6.866656     0.784231
 H    -1.430051    -7.048369     2.232499
 O    -1.579804    -8.019569     2.184136
 H    -2.550732    -8.103971     2.168169
 H    -10.102934    -3.755507    -4.652390
 O    -10.229819    -2.844592    -4.337774
 H    -9.999551    -2.256534    -5.069905
 H     0.448241     8.147538    -2.861427
 O     0.767683     9.001463    -3.221053
 H     1.670243     9.122807    -2.859569
 H    -9.128060    -7.769336    -2.896042
 O    -9.716055    -7.013589    -2.856339
 H    -9.592690    -6.624187    -1.971781
 H     2.092984     0.446878     4.576660
 O     2.191013    -0.425976     5.001821
 H     2.396198    -1.072030     4.291103
 H    -6.589147     0.819155    -7.551211
 O    -7.547562     0.899722    -7.415734
 H    -7.700088     1.786260    -7.086270
 H     6.204375     4.285836    -7.119370
 O     5.617693     4.184990    -6.369805
 H     4.770742     4.658912    -6.636102
 H    -5.334763     10.279076     1.178201
 O    -4.846706     10.341522     0.346250
 H    -5.435209     9.890701    -0.290970
 H    -0.833598    -0.789658    -5.817719
 O    -0.999238    -0.098400    -6.495272
 H    -0.213623     0.476277    -6.416123
 H     4.711196    -0.060023    -6.991725
 O     4.794915    -1.003713    -6.817654
 H     5.642772    -1.127835    -6.355633
 H     2.501602    -8.666342    -3.098064
 O     3.458741    -8.598716    -3.095240
 H     3.683855    -7.974865    -3.801255
 H    -4.273004    -0.001720    -7.888436
 O    -4.780304     0.734745    -7.514338
 H    -4.098988     1.358486    -7.173911
 H     1.363684     3.425653     6.834713
 O     2.110080     2.820709     7.012505
 H     2.923266     3.349302     6.912906
 H    -11.347950    -2.595461    -0.090802
 O    -10.927742    -1.992018     0.522255
 H    -10.196955    -1.575476     0.032106
 H    -7.392255     1.658920     7.708174
 O    -7.865281     2.502617     7.669158
 H    -7.979502     2.795305     8.572793
 H     6.172643    -8.953031    -1.649606
 O     6.252834    -9.026089    -2.605611
 H     5.366005    -9.233040    -2.926197
 H     6.601551     5.294355    -0.562212
 O     7.239503     4.644486    -0.874819
 H     7.432267     4.072549    -0.103948
 H    -5.354365    -3.095509     5.702698
 O    -5.364447    -2.365284     6.360061
 H    -4.733750    -2.654287     7.042087
 H     2.633712     1.139759     7.518020
 O     3.100126     0.301704     7.388206
 H     2.776331    -0.041286     6.528289
 H    -2.686297    -3.156530     6.901536
 O    -3.170485    -3.332691     7.737577
 H    -2.547478    -3.037054     8.416905
 H     5.797718     1.734460     6.729142
 O     5.509602     0.874646     6.417402
 H     4.625135     0.705308     6.804643
 H     2.064399    -4.672543     3.833250
 O     2.570855    -4.534594     4.655529
 H     3.304197    -5.176318     4.547163
 H     10.416528    -2.602504    -1.979446
 O     10.916100    -2.654603    -1.119569
 H     11.844448    -2.616431    -1.343212
 H     3.871776     8.445955    -2.488340
 O     3.194515     9.002249    -2.084063
 H     3.023006     8.607969    -1.209329
 H    -8.169366    -6.435337     0.082482
 O    -8.818032    -5.984233    -0.481724
 H    -8.761996    -5.049116    -0.166034
 H    -0.741721     9.860001    -2.778507
 O    -1.678977     10.015926    -2.555129
 H    -1.741499     10.087758    -1.600195
 H     4.105290     4.225968    -3.579850
 O     3.554212     5.014225    -3.563089
 H     4.117220     5.777038    -3.316162
 H     5.164554     6.711976    -1.655306
 O     5.091662     6.968489    -2.595310
 H     5.871376     6.632494    -3.055771
 H    -0.366117     4.916210     6.338170
 O     0.351889     4.459774     5.877217
 H     1.042784     5.115630     5.617460
 H     3.215513     5.339943     5.405903
 O     2.451509     5.801366     5.029169
 H     2.395155     5.515366     4.103608
 H    -7.180162     9.019462     0.299246
 O    -6.893454     8.839635    -0.605784
 H    -6.661794     7.894332    -0.624807
 H    -1.435699    -5.243597     3.373253
 O    -0.814730    -5.275671     2.604927
 H    -0.062275    -5.789088     2.983701
 H     4.250976    -2.414706     6.109029
 O     4.254558    -2.518605     5.134124
 H     3.537327    -3.152638     4.921323
 H     7.110284    -6.282187     2.839417
 O     7.485276    -5.961911     3.669482
 H     7.020768    -5.125279     3.859211
 H     9.037948    -4.986415     3.638625
 O     9.670560    -4.251459     3.534420
 H     9.408257    -3.579802     4.176003
 H     3.026612     8.355557    -7.663306
 O     3.033159     7.780169    -6.899762
 H     2.162659     7.909761    -6.450510
 H    -0.566872    -1.673863     8.037380
 O    -0.770380    -2.342307     8.706855
 H    -0.061834    -2.988601     8.645424
 H     8.354643     4.624740    -2.073933
 O     9.029391     4.684179    -2.798714
 H     9.755717     5.180397    -2.421164
 H     6.362166     4.970096    -4.957885
 O     6.688374     5.325254    -4.109931
 H     7.635601     5.162406    -4.035486
 H     10.630509     2.392160    -4.109936
 O     9.897602     2.254736    -3.511766
 H     9.517909     3.137519    -3.302821
 H     3.171060    -2.774931     7.746400
 O     4.003006    -2.264579     7.778029
 H     3.727098    -1.343055     7.898557
 H    -2.460142    -1.504909    -8.854073
 O    -2.866006    -1.212575    -8.038927
 H    -2.159016    -0.783594    -7.509879
 H     5.106462     5.347598     1.782928
 O     4.903638     4.755431     2.518072
 H     3.934677     4.776227     2.622664
 H    -3.777379    -6.029502    -5.105668
 O    -2.969860    -5.514093    -5.164861
 H    -3.201206    -4.712222    -5.659940
 H    -6.547609     5.958355     5.255534
 O    -6.112633     6.795586     5.009557
 H    -5.984564     6.759302     4.035641
 H    -7.436607     3.870878     6.377547
 O    -7.180154     4.340286     5.573825
 H    -6.937223     3.642839     4.943465
 H    -7.251758     9.402396     2.954498
 O    -7.012644     9.835187     2.109372
 H    -7.480981     10.670677     2.101828
 H    -5.959052    -6.984555     1.401410
 O    -6.574172    -6.335949     1.025864
 H    -6.040231    -5.860813     0.353230
 H    -3.746237    -5.029898     7.419840
 O    -3.982815    -5.855613     6.960688
 H    -3.198717    -6.095328     6.451681
 H     9.544411     0.887695    -0.558356
 O     9.593600     1.851233    -0.696376
 H     9.897159     1.963143    -1.603346
 H    -7.949148    -4.320034     3.101789
 O    -7.023809    -4.585531     3.087941
 H    -6.899663    -5.189313     2.327783
 H     1.061607    -2.596947     6.781130
 O     1.586843    -3.360054     7.063589
 H     1.789270    -3.832888     6.232519
 H    -3.475425    -2.516787    -6.934528
 O    -3.886127    -3.172971    -6.352458
 H    -4.835040    -3.037064    -6.422529
 H    -8.679670     8.217534     4.315437
 O    -7.888439     8.743946     4.439122
 H    -7.208889     8.131076     4.791154
 H     7.990314    -1.824763    -5.306619
 O     7.065660    -1.572187    -5.313454
 H     6.600840    -2.240452    -4.774978
 H    -4.875132    -5.146470     5.578283
 O    -4.925346    -4.525089     4.825723
 H    -5.687028    -4.750399     4.272215
 N     0.865986    -7.144294     3.953937
 H     0.864218    -6.970544     4.954148
 H     1.817922    -7.387417     3.699789
 H     0.278695    -7.954946     3.777463
