604
grain_mol71 // -1503.055193967961 // -34.8994942538 // -515.166845231761 // -1022.78784299 // -0.0318687335 // -0.583270590791 // -0.008827475549
 H    -1.841368    -0.060455     2.479926
 O    -0.863562    -0.069841     2.564422
 H    -0.623257    -0.974211     2.876013
 H    -0.513995    -1.811342    -2.879558
 O    -0.591663    -1.840801    -1.913360
 H    -1.536025    -1.715771    -1.721271
 H    -2.723842     1.898076     0.884248
 O    -2.648240     1.263849     0.151640
 H    -1.850941     1.525504    -0.343622
 H    -3.697868     2.096136    -2.987934
 O    -3.167718     2.433083    -3.747655
 H    -2.260894     2.527286    -3.437975
 H    -0.179496    -0.625433    -0.798077
 O    -0.027515     0.089810    -0.150372
 H    -0.470777    -0.191201     0.660847
 H     0.842975    -1.899026    -4.803955
 O    -0.101597    -2.047511    -4.632168
 H    -0.231461    -3.006507    -4.681942
 H    -4.888597     2.589832    -1.241871
 O    -4.552379     1.755662    -1.623542
 H    -3.890586     1.442848    -0.962056
 H    -3.477187     3.449769     2.547972
 O    -2.778077     2.806545     2.321531
 H    -1.995330     3.114147     2.814462
 H     2.524116     0.192951    -2.915077
 O     1.894276    -0.423267    -2.487797
 H     1.004333    -0.076611    -2.691814
 H    -1.161596     0.403580    -3.582564
 O    -0.338596     0.847408    -3.289986
 H    -0.566827     1.444877    -2.558873
 H     2.596734    -0.706606     0.582002
 O     2.478666    -1.440695    -0.055326
 H     2.231902    -1.037069    -0.909491
 H    -2.914470    -0.366145    -0.594456
 O    -3.065340    -0.811400    -1.438816
 H    -3.890548    -1.325725    -1.373199
 H     2.820041     1.140148    -0.761198
 O     2.020690     1.682318    -0.639153
 H     1.280321     1.060228    -0.476831
 H     0.654847     3.190434    -3.175800
 O     1.564173     2.966463    -2.938049
 H     1.545364     2.494918    -2.085603
 H    -0.079954    -4.001804    -0.592891
 O    -0.335431    -4.671186    -1.267084
 H    -1.137729    -5.098005    -0.888340
 H    -6.218354     2.323289     3.039241
 O    -6.272078     2.514726     4.012232
 H    -7.044076     2.012748     4.340086
 H     0.937341    -3.797613     1.267578
 O     0.552036    -3.127058     0.674431
 H     1.258164    -2.493093     0.434633
 H    -2.734504     5.332200    -0.919483
 O    -2.587677     4.521703    -0.396440
 H    -3.490288     4.187741    -0.211911
 H    -5.611152    -1.090059     1.661467
 O    -5.310717    -0.456451     0.975433
 H    -5.433211    -0.900833     0.131151
 H    -0.530548    -3.243260     3.009123
 O    -0.190709    -2.450533     3.457997
 H     0.757418    -2.386696     3.257259
 H     5.239352     0.819355    -1.119537
 O     4.433898     0.318230    -0.930085
 H     4.642993    -0.114393    -0.072366
 H     0.772629     2.335220     1.101958
 O     0.748861     1.985669     2.002155
 H     0.107555     1.252709     2.040710
 H     4.385606    -0.663537    -2.305491
 O     4.571437    -1.148371    -3.141136
 H     5.079711    -0.515067    -3.690879
 H     3.132087     3.132506    -0.928442
 O     4.026452     3.496414    -0.895348
 H     4.503043     3.198542    -1.693929
 H    -5.974902    -1.253903    -1.928155
 O    -5.475534    -1.979608    -1.494504
 H    -5.416214    -2.691498    -2.154949
 H    -5.128119    -3.896435     1.183209
 O    -5.788799    -3.234643     0.905364
 H    -5.543265    -2.950249     0.014731
 H     2.763295     2.069408    -3.610142
 O     3.407462     1.362811    -3.821272
 H     3.484506     1.337151    -4.780713
 H    -5.063117     3.991502     3.785147
 O    -4.466131     4.561812     3.289319
 H    -3.921389     5.065427     3.931329
 H     0.650858     1.023900    -4.698116
 O     1.139202     0.897960    -5.537550
 H     1.713993     0.119507    -5.385263
 H     1.224715     5.755199    -2.190322
 O     2.001173     5.390701    -1.732092
 H     2.540803     4.931314    -2.406064
 H    -2.969193    -3.359280    -1.834496
 O    -3.131381    -3.616450    -0.910996
 H    -3.919326    -4.177745    -0.892114
 H     2.260497     5.121209    -4.445326
 O     1.390872     5.250329    -4.862569
 H     1.354121     4.563525    -5.555188
 H     7.869519     1.425240    -0.911909
 O     7.010684     1.166047    -1.298605
 H     7.299903     0.454484    -1.913170
 H     4.565056     2.572885     0.408424
 O     4.884600     2.191412     1.251946
 H     4.835815     2.934992     1.888064
 H     0.896181    -3.207038    -2.209302
 O     1.762068    -3.083370    -2.624974
 H     1.888419    -2.111352    -2.643620
 H     1.324467     4.543249    -0.513354
 O     0.845204     4.082080     0.212163
 H     0.190489     4.713779     0.559827
 H    -5.753504     1.185838     1.247192
 O    -6.206483     2.029834     1.446088
 H    -7.146909     1.833595     1.202508
 H    -2.429699    -2.573950     0.225678
 O    -1.932413    -2.030805     0.866943
 H    -1.038229    -2.410535     0.862664
 H    -3.756545    -0.292767     4.263462
 O    -3.758237    -0.439033     5.237023
 H    -4.535671    -0.990618     5.482129
 H    -6.236181    -2.699723     3.166922
 O    -5.758162    -1.859981     3.268597
 H    -4.815309    -2.124502     3.266588
 H    -2.910454    -0.269365    -3.004719
 O    -2.647030    -0.332025    -3.949931
 H    -2.528204    -1.303703    -4.040185
 H    -3.610114    -3.228104    -3.773545
 O    -2.736298    -2.885144    -3.521628
 H    -2.069529    -3.544398    -3.797785
 H     3.141041    -1.251906    -4.264341
 O     2.586996    -1.340894    -5.063272
 H     3.215712    -1.520685    -5.780967
 H     4.745668     2.223262    -6.557404
 O     4.181001     1.423307    -6.583762
 H     3.356239     1.698578    -6.992441
 H    -4.214591     1.007305     5.792384
 O    -4.664235     1.847882     6.064466
 H    -5.216541     2.104045     5.298236
 H    -4.008053    -0.000008     1.996246
 O    -3.460163     0.280921     2.749061
 H    -3.338768     1.249710     2.682170
 H    -5.811346     0.813428    -2.245892
 O    -6.378037     0.177754    -2.729877
 H    -5.951424     0.078426    -3.602963
 H     1.703909    -3.854903    -4.176590
 O     1.632399    -4.298789    -5.044276
 H     1.194690    -5.146817    -4.865454
 H     4.283215    -3.754082    -0.688031
 O     4.590156    -3.023752    -0.106380
 H     3.852352    -2.369265    -0.101885
 H    -0.168623     3.017678    -0.838549
 O    -0.929859     2.678788    -1.338891
 H    -1.618016     3.362541    -1.201253
 H     1.884397     4.270136     1.651116
 O     2.341311     4.371622     2.506187
 H     2.115777     3.582695     3.023423
 H     3.693964     0.976460     1.681848
 O     2.901418     0.425412     1.831109
 H     2.150832     1.036691     1.964362
 H     2.943600    -4.074087    -2.132089
 O     3.618293    -4.732293    -1.833304
 H     4.298499    -4.748103    -2.524800
 H     4.788245    -3.924756    -4.571585
 O     5.226080    -3.644405    -3.730731
 H     4.856654    -2.773858    -3.477374
 H    -0.930501     5.031728     2.211203
 O    -1.084019     5.606253     1.425173
 H    -1.736120     5.145267     0.836842
 H    -5.606143     3.366208     0.527934
 O    -5.132282     3.862448    -0.166479
 H    -5.548816     4.737827    -0.306137
 H     4.804606    -4.131843     2.871565
 O     4.061725    -3.911828     2.303359
 H     4.408014    -3.622616     1.429190
 H     5.731846    -1.573723     1.340101
 O     5.369071    -0.665981     1.345899
 H     6.174633    -0.117289     1.404968
 H     1.303960    -6.714255    -3.158384
 O     1.117332    -6.907828    -4.102310
 H     1.989860    -7.009295    -4.510191
 H    -7.393995    -3.371488     0.702925
 O    -8.360106    -3.324317     0.499042
 H    -8.814838    -3.129779     1.347372
 H     3.076355    -2.631201     2.769369
 O     2.418079    -1.938858     2.968122
 H     2.673231    -1.134203     2.481853
 H    -1.875373     2.636345     5.150215
 O    -2.566898     3.305286     5.308544
 H    -3.328493     2.824040     5.684040
 H    -0.839259     0.834802     4.013982
 O    -0.699138     1.366839     4.829363
 H     0.157508     1.789725     4.706172
 H     0.378692     3.531552    -6.853033
 O     1.324138     3.293697    -6.732405
 H     1.305519     2.434311    -6.270122
 H     6.966028    -3.244156     4.674575
 O     6.195987    -3.656173     4.215595
 H     5.402556    -3.279627     4.665632
 H     7.988737     1.116150     1.452984
 O     7.876700     0.184757     1.722237
 H     8.338289    -0.375415     1.070460
 H    -4.134369    -0.270595    -4.672675
 O    -5.062878    -0.268418    -5.010867
 H    -5.032833     0.121601    -5.905948
 H     6.343880    -1.648476    -2.179186
 O     6.733257    -2.136862    -1.448527
 H     5.989889    -2.394804    -0.871045
 H     4.604799    -1.118238     4.434371
 O     5.048617    -0.383190     3.978786
 H     4.990936    -0.528066     3.010374
 H     0.055365     3.228346     2.952297
 O    -0.547917     3.900723     3.327687
 H    -0.231185     4.131538     4.222282
 H     8.142117    -1.540243    -0.721841
 O     8.943482    -1.206036    -0.260286
 H     9.614844    -1.896760    -0.347682
 H     9.399763    -4.233274     2.093416
 O     9.114035    -4.015206     1.179728
 H     9.886961    -3.872129     0.622616
 H    -2.560040    -2.596775     3.800466
 O    -3.184119    -2.645800     3.066563
 H    -2.713305    -2.320678     2.258206
 H    -2.156478     0.953929    -6.259513
 O    -2.755246     1.726082    -6.286698
 H    -3.003304     1.902456    -5.355340
 H    -1.111159     3.966192    -5.430433
 O    -1.232221     3.954382    -6.408321
 H    -1.850862     3.219185    -6.567154
 H    -4.885845    -6.052302    -1.272834
 O    -5.329822    -5.294376    -0.863827
 H    -6.089363    -5.079535    -1.447080
 H     2.407133    -5.878357    -1.595462
 O     1.581226    -6.397772    -1.521851
 H     0.841482    -5.741233    -1.399803
 H     3.090191    -4.290708    -5.710324
 O     4.050860    -4.315930    -5.974028
 H     4.195058    -3.572641    -6.565950
 H     7.529405     3.123777     2.135775
 O     7.465343     2.759253     1.237642
 H     6.517534     2.463485     1.197967
 H     6.430629    -4.131142     0.280105
 O     6.887729    -4.956075     0.046033
 H     7.779869    -4.835561     0.426677
 H    -7.702653    -4.101519    -2.556243
 O    -7.510143    -5.043151    -2.350255
 H    -8.143433    -5.302998    -1.654052
 H    -4.179427     6.835834     5.042701
 O    -3.305698     6.470551     4.806641
 H    -2.833863     6.231177     5.618877
 H     7.339126     3.163970     4.906798
 O     7.330956     2.778997     4.020549
 H     7.540273     1.833060     4.143324
 H    -5.828756     0.973891     6.944774
 O    -6.619606     0.457060     7.224304
 H    -6.379764    -0.472356     7.073355
 H    -0.696882    -4.801183    -2.990315
 O    -0.857140    -4.681523    -3.944066
 H    -1.477609    -5.363814    -4.231347
 H     6.657266    -0.108430     4.352326
 O     7.634054     0.048541     4.314375
 H     7.848496     0.009917     3.355795
 H     4.515450    -6.751670    -3.983002
 O     3.817656    -6.891059    -4.658919
 H     3.970245    -6.216334    -5.328880
 H    -6.012026    -1.573698    -5.289450
 O    -6.656412    -2.311438    -5.415719
 H    -7.491875    -1.853241    -5.691993
 H    -7.699099     0.815739     6.014492
 O    -8.245220     1.182235     5.273672
 H    -8.833869     1.825698     5.671690
 H    -5.058595     5.883805     2.381619
 O    -5.259397     6.809011     2.132709
 H    -4.384590     7.250199     2.124782
 H     5.802778     1.440541    -3.960654
 O     6.006981     0.655068    -4.514512
 H     5.525186     0.783839    -5.333874
 H    -5.664432     6.654749     0.476400
 O    -5.696593     6.446516    -0.480719
 H    -4.797568     6.655222    -0.812020
 H    -0.586492    -7.388644    -3.270942
 O    -1.292856    -7.497366    -2.623623
 H    -0.911046    -7.872401    -1.821316
 H    -2.651279    -1.613720     5.489747
 O    -2.026935    -2.366827     5.620557
 H    -1.176930    -1.935172     5.828190
 H     7.301720    -4.763027    -1.609538
 O     7.422896    -4.740043    -2.582863
 H     6.669075    -4.226958    -2.922204
 H    -8.970078    -2.546005    -3.351811
 O    -8.047251    -2.505777    -3.010788
 H    -7.493497    -2.324031    -3.785400
 H     8.654928    -3.597459    -2.944018
 O     9.315559    -2.894960    -3.121145
 H     8.845794    -2.047478    -3.018627
 H    -5.311418    -4.714040    -3.678932
 O    -5.238606    -3.755358    -3.533730
 H    -5.741568    -3.331081    -4.239856
 H    -3.537227     4.195769    -3.464373
 O    -3.215877     5.031770    -3.089256
 H    -3.474200     5.750038    -3.668137
 H    -0.104180     4.805946    -3.963931
 O    -0.787471     4.136947    -3.779318
 H    -1.554175     4.605670    -3.392343
 H    -2.163900    -4.115235     5.286142
 O    -2.488326    -4.958709     4.933568
 H    -3.414627    -4.775157     4.697846
 H    -2.124997     8.519727    -3.609793
 O    -2.364955     7.578356    -3.731568
 H    -2.173000     7.349946    -4.667870
 H    -2.763100     7.348796     3.356964
 O    -2.680490     7.557238     2.411273
 H    -2.108375     6.850492     2.048596
 H     4.804107     1.283725     4.224399
 O     4.685817     2.246624     4.072837
 H     5.572174     2.578833     3.838029
 H     7.740664    -2.184581     6.234000
 O     8.177030    -2.385454     5.382986
 H     8.166759    -1.529118     4.911963
 H     5.892519    -1.889411     7.748597
 O     6.617142    -1.387001     7.363032
 H     6.187861    -0.611023     6.938341
 H    -1.556753     5.803206    -6.370475
 O    -1.656409     6.744916    -6.162391
 H    -0.769897     7.138419    -6.251067
 H    -8.254631     0.036090     3.936136
 O    -8.088909    -0.494219     3.144000
 H    -7.198610    -0.877206     3.240916
 H    -8.558170     0.436536     0.188104
 O    -8.565652     1.065576     0.928592
 H    -8.561064     0.508060     1.725309
 H     0.748662    -0.692219     5.901327
 O    -0.087632    -0.742564     6.420598
 H    -0.560625     0.053766     6.122336
 H    -0.245558     7.032625    -1.545640
 O    -0.215925     6.659301    -2.449291
 H    -1.061242     6.898194    -2.892047
 H     0.226862    -8.070324     0.459801
 O    -0.687538    -8.279058     0.214974
 H    -1.143053    -8.338084     1.082755
 H     2.051046     2.485570     5.289052
 O     2.052123     2.218424     4.345467
 H     2.993444     2.210070     4.093980
 H    -8.220837    -5.125892    -5.611882
 O    -7.318850    -5.012450    -5.953947
 H    -7.129392    -4.067529    -5.885096
 H     2.700745    -7.726347     0.950532
 O     1.829028    -7.325275     0.910390
 H     1.760661    -6.973646    -0.014549
 H     3.503392     5.651360    -7.319947
 O     3.618489     4.686826    -7.456552
 H     2.772385     4.266129    -7.239157
 H    -0.304551     6.965197     0.623330
 O     0.029571     7.667509     0.040294
 H    -0.619176     8.383206     0.100945
 H     4.507842     3.377569     5.288533
 O     4.445829     4.017253     6.038367
 H     5.328264     4.039819     6.417780
 H     7.678038     2.380266     6.864048
 O     7.184154     3.240333     6.797777
 H     7.691848     3.873129     7.304494
 H     3.695029    -8.159064    -1.141828
 O     4.232874    -7.654309    -0.509822
 H     4.700935    -7.017430    -1.073814
 H     6.437934    -6.180348    -2.761120
 O     5.647166    -6.749760    -2.721223
 H     5.949362    -7.674273    -2.666918
 H    -9.131251    -1.840771     2.959065
 O    -9.646401    -2.636680     2.709335
 H    -10.369970    -2.295538     2.156568
 H    -2.396862     8.805164     1.137233
 O    -2.239868     9.169172     0.250100
 H    -3.013803     9.763189     0.086714
 H     8.044815     0.207908     7.379974
 O     8.415153     0.898716     6.819768
 H     8.254724     0.590973     5.910977
 H    -2.242793     5.064095     7.741322
 O    -1.950912     5.284115     6.857803
 H    -2.172944     4.494546     6.279180
 H    -6.587076    -6.129161    -3.425686
 O    -5.925399    -6.340263    -4.109418
 H    -6.353428    -6.025758    -4.934952
 H     6.612516    -3.113097     2.654165
 O     6.748128    -2.843128     1.726672
 H     7.691414    -2.956077     1.539482
 H     2.529328     6.601427    -0.727790
 O     2.810590     7.322398    -0.120606
 H     1.979361     7.687155     0.207260
 H    -4.523696    -7.155893    -2.990788
 O    -3.965170    -7.233628    -2.208769
 H    -3.059970    -7.385041    -2.535261
 H     1.093022     6.728910    -5.528026
 O     0.953688     7.612882    -5.940870
 H     0.994865     8.233749    -5.184425
 H    -8.388383    -1.306458    -1.694285
 O    -8.671528    -1.039762    -0.805842
 H    -8.473754    -1.843979    -0.274904
 H    -3.045887     7.249627    -2.085135
 O    -3.152693     7.060459    -1.143116
 H    -2.820381     7.844032    -0.656877
 H     2.578664    -4.725962     2.263332
 O     1.650862    -5.033175     2.263761
 H     1.673800    -5.919061     1.846589
 H    -8.897638    -0.355798    -5.042367
 O    -8.829846    -0.924543    -5.844550
 H    -8.519978    -0.326365    -6.547355
 H     7.481006    -0.306983    -3.893758
 O     8.125276    -0.377485    -3.170400
 H     8.818766     0.269630    -3.367814
 H     4.409754     6.489483     0.025458
 O     5.094037     5.828537    -0.166101
 H     4.606206     5.013716    -0.420131
 H    -7.996000     0.490774    -3.210766
 O    -8.891222     0.547240    -3.604369
 H    -9.504382     0.326388    -2.901940
 H     6.209955     3.581049    -3.220661
 O     5.706197     2.807252    -2.902242
 H     6.276489     2.362996    -2.234172
 H    -1.662835    -6.885631     0.004515
 O    -2.247901    -6.118172    -0.159989
 H    -2.852242    -6.389917    -0.857574
 H    -4.320963    -7.671763     0.886494
 O    -4.539161    -7.419974     1.786868
 H    -4.287477    -6.468702     1.864905
 H    -3.122944    -5.014055     1.102085
 O    -3.830675    -4.877376     1.752708
 H    -3.520271    -4.180183     2.365510
 H     4.944214    -6.497270     4.736140
 O     4.201779    -6.215217     4.198588
 H     4.495453    -6.306306     3.276605
 H    -9.854674    -5.790716    -3.989365
 O    -9.849610    -5.318657    -4.853663
 H    -10.507031    -5.756178    -5.394964
 H     5.991306    -5.950679     1.137987
 O     5.454578    -6.528534     1.718704
 H     4.977765    -7.092705     1.098329
 H    -1.695503    -6.750144     2.480196
 O    -1.874412    -7.704737     2.521066
 H    -2.838902    -7.790426     2.511360
 H    -10.273646    -3.598917    -4.540875
 O    -10.366262    -2.672556    -4.261296
 H    -10.110824    -2.121827    -5.013814
 H     0.721468     7.949816    -3.137197
 O     1.074501     8.777121    -3.526051
 H     1.980084     8.876826    -3.165286
 H    -9.461695    -7.578294    -2.629943
 O    -10.019758    -6.799203    -2.622339
 H    -9.885715    -6.382078    -1.752093
 H     2.036143     0.479661     4.593693
 O     2.098458    -0.380789     5.050560
 H     2.283697    -1.059464     4.367405
 H    -6.573844     0.725577    -7.589293
 O    -7.528939     0.847784    -7.461928
 H    -7.648617     1.751467    -7.167327
 H     6.344539     3.712289    -7.212652
 O     5.747248     3.658262    -6.466603
 H     4.922936     4.156808    -6.755071
 H    -4.993073     10.452284     0.786751
 O    -4.499171     10.464454    -0.044001
 H    -5.101825     10.013170    -0.667493
 H    -0.892125    -1.036312    -5.763601
 O    -1.027925    -0.365539    -6.467551
 H    -0.220994     0.181254    -6.405754
 H     4.681529    -0.564532    -6.932930
 O     4.727653    -1.503439    -6.722302
 H     5.568757    -1.641907    -6.252069
 H     2.125440    -8.928543    -2.733523
 O     3.084344    -8.895105    -2.726080
 H     3.336587    -8.308938    -3.454875
 H    -4.289609    -0.195780    -7.882329
 O    -4.769768     0.572899    -7.538452
 H    -4.066411     1.182761    -7.218357
 H     1.411791     3.565155     6.734160
 O     2.133821     2.938961     6.937656
 H     2.966941     3.432368     6.824288
 H    -11.492363    -2.221123    -0.032845
 O    -11.051707    -1.611308     0.559196
 H    -10.303463    -1.242019     0.057719
 H    -7.409023     2.168800     7.623519
 O    -7.848540     3.028132     7.549879
 H    -7.956121     3.358663     8.441195
 H     5.777293    -9.301036    -1.252871
 O     5.858010    -9.410272    -2.205369
 H     4.965631    -9.597372    -2.522660
 H     6.754865     5.087655    -0.735732
 O     7.260156     4.303402    -0.988183
 H     7.399872     3.831323    -0.135779
 H    -5.545413    -2.735512     5.808049
 O    -5.531202    -1.979988     6.436266
 H    -4.916308    -2.266142     7.133778
 H     2.589982     1.260398     7.510153
 O     3.025604     0.401524     7.413746
 H     2.691206     0.037900     6.566863
 H    -2.888397    -2.851864     7.024424
 O    -3.382786    -2.976260     7.863246
 H    -2.751110    -2.680643     8.534840
 H     5.777730     1.702592     6.718064
 O     5.458355     0.843826     6.435342
 H     4.566697     0.722247     6.824463
 H     1.743202    -4.505716     4.088683
 O     2.226650    -4.471289     4.926766
 H     2.898049    -5.170424     4.837405
 H     10.263396    -3.131561    -1.795260
 O     10.757321    -3.167703    -0.930854
 H     11.686993    -3.180873    -1.151698
 H     4.152899     8.130313    -2.756619
 O     3.494823     8.726369    -2.377771
 H     3.305271     8.373025    -1.489580
 H    -8.464931    -6.170631     0.301885
 O    -9.092919    -5.716450    -0.283017
 H    -9.002706    -4.773112    -0.001840
 H    -0.402523     9.708658    -3.125532
 O    -1.334052     9.908440    -2.913191
 H    -1.397411     10.019040    -1.962039
 H     4.227201     3.867927    -3.688856
 O     3.705713     4.676137    -3.699730
 H     4.298722     5.425309    -3.481210
 H     5.375834     6.381462    -1.852516
 O     5.313337     6.602864    -2.801117
 H     6.083467     6.221964    -3.243554
 H    -0.256924     5.100315     6.172491
 O     0.445215     4.600037     5.732909
 H     1.161462     5.219146     5.452633
 H     3.342570     5.352005     5.244824
 O     2.598336     5.827424     4.846783
 H     2.535162     5.509718     3.932046
 H    -6.881789     9.232127    -0.054917
 O    -6.598244     9.007466    -0.950879
 H    -6.403454     8.053914    -0.933358
 H    -1.566184    -5.042410     3.539842
 O    -1.113128    -4.958970     2.669821
 H    -0.205980    -5.261022     2.764999
 H     4.075954    -2.403714     6.245030
 O     4.072621    -2.546176     5.274117
 H     3.334369    -3.163124     5.092422
 H     6.802481    -6.498898     3.135928
 O     7.192130    -6.157971     3.950846
 H     6.749738    -5.303426     4.111890
 H     8.772273    -5.248772     3.895572
 O     9.433061    -4.541933     3.769492
 H     9.192465    -3.839154     4.385596
 H     3.327059     7.878763    -7.927774
 O     3.306356     7.332023    -7.143750
 H     2.439672     7.512125    -6.705319
 H    -0.719370    -1.407319     8.117388
 O    -0.952971    -2.042307     8.808937
 H    -0.268722    -2.716811     8.776945
 H     8.466714     4.230074    -2.182348
 O     9.194361     4.171788    -2.856237
 H     9.989697     4.323350    -2.287897
 H     6.526629     4.469376    -5.076627
 O     6.851239     4.841798    -4.236349
 H     7.794360     4.663617    -4.145625
 H     10.670728     1.773394    -4.050322
 O     9.823679     1.715459    -3.598764
 H     9.557061     2.659131    -3.368296
 H     2.978382    -2.658441     7.891894
 O     3.830197    -2.179886     7.901620
 H     3.588575    -1.245254     7.989686
 H    -2.532143    -1.802170    -8.780763
 O    -2.929606    -1.464751    -7.979000
 H    -2.208856    -1.043143    -7.462807
 H     5.246040     5.150023     1.633439
 O     5.020694     4.594091     2.390680
 H     4.052867     4.655318     2.489753
 H    -4.037748    -6.129205    -4.872749
 O    -3.211099    -5.647003    -4.946570
 H    -3.409965    -4.856464    -5.473056
 H    -6.388752     6.337706     5.016330
 O    -5.920477     7.147586     4.741623
 H    -5.790271     7.070029     3.770414
 H    -7.362432     4.329455     6.210586
 O    -7.084185     4.758021     5.391437
 H    -6.866218     4.028507     4.788917
 H    -6.949965     9.717265     2.583672
 O    -6.690624     10.108347     1.724322
 H    -7.126435     10.960277     1.682637
 H    -6.283733    -6.753983     1.651962
 O    -6.871893    -6.095969     1.249790
 H    -6.317106    -5.667575     0.563163
 H    -4.018101    -4.663420     7.605556
 O    -4.284091    -5.493359     7.170480
 H    -3.503650    -5.791004     6.688757
 H     9.671494     0.401360    -0.517975
 O     9.782512     1.340505    -0.766669
 H     9.962072     1.312808    -1.726705
 H    -8.175849    -3.953702     3.241799
 O    -7.260795    -4.252979     3.242509
 H    -7.157023    -4.890702     2.507367
 H     0.905156    -2.439308     6.909719
 O     1.376705    -3.201569     7.262849
 H     1.567396    -3.773639     6.502991
 H    -3.593621    -2.701829    -6.830470
 O    -4.031456    -3.318891    -6.225768
 H    -4.974240    -3.150376    -6.306988
 H    -8.428281     8.639972     3.980074
 O    -7.617802     9.139842     4.088272
 H    -6.963952     8.515215     4.467119
 H     7.883194    -2.387618    -5.165716
 O     6.968299    -2.102435    -5.185126
 H     6.477543    -2.732417    -4.624656
 H    -5.137912    -4.807182     5.761821
 O    -5.160022    -4.214288     4.985316
 H    -5.931995    -4.427870     4.441590
 N     11.146452     4.165473    -0.836383
 H     12.160264     4.211410    -0.877637
 H     10.897631     3.235997    -0.494907
 H     10.854495     4.827729    -0.122771
