604
grain_mol63 // -1503.049810229598 // -34.8986322167 // -515.165318836298 // -1022.78312361 // -0.0277035262 // -0.582826563799 // -0.007059741081
 H    -1.890307    -0.086359     2.462063
 O    -0.914763    -0.059637     2.565424
 H    -0.647817    -0.952417     2.888611
 H    -0.394906    -1.823310    -2.857704
 O    -0.490917    -1.849428    -1.893106
 H    -1.442695    -1.757015    -1.720407
 H    -2.811004     1.828704     0.834873
 O    -2.698824     1.193107     0.108142
 H    -1.901092     1.479235    -0.372719
 H    -3.714980     1.965531    -3.056978
 O    -3.182539     2.316614    -3.808720
 H    -2.285880     2.445034    -3.482127
 H    -0.144452    -0.612305    -0.778604
 O    -0.032868     0.113095    -0.134074
 H    -0.479690    -0.179247     0.671177
 H     1.002004    -1.874183    -4.754027
 O     0.060012    -2.055898    -4.600706
 H    -0.033534    -3.019364    -4.645305
 H    -4.957010     2.427319    -1.338263
 O    -4.583538     1.603363    -1.707227
 H    -3.923843     1.319311    -1.030668
 H    -3.652482     3.363239     2.472125
 O    -2.926540     2.744080     2.264074
 H    -2.164992     3.083029     2.769685
 H     2.569472     0.288652    -2.847822
 O     1.952919    -0.346814    -2.429667
 H     1.055679    -0.033078    -2.653376
 H    -1.108344     0.362153    -3.589451
 O    -0.307978     0.837963    -3.284922
 H    -0.571479     1.430750    -2.561859
 H     2.605396    -0.583854     0.656051
 O     2.524385    -1.325897     0.021844
 H     2.282198    -0.936609    -0.840108
 H    -2.890385    -0.450746    -0.630558
 O    -3.009061    -0.906500    -1.474487
 H    -3.815974    -1.450262    -1.420629
 H     2.789076     1.261191    -0.695788
 O     1.967593     1.774407    -0.595517
 H     1.247587     1.126838    -0.441855
 H     0.597644     3.214718    -3.167242
 O     1.509995     3.026541    -2.911044
 H     1.492661     2.559821    -2.055710
 H     0.072817    -3.981366    -0.546851
 O    -0.145685    -4.663954    -1.220987
 H    -0.939171    -5.116804    -0.854368
 H    -6.360520     2.141637     2.918169
 O    -6.440619     2.337564     3.888434
 H    -7.200123     1.809871     4.204820
 H     1.044872    -3.727849     1.331346
 O     0.646983    -3.076008     0.725727
 H     1.334386    -2.418145     0.495327
 H    -2.910089     5.248015    -0.993980
 O    -2.744509     4.446907    -0.462269
 H    -3.637845     4.081598    -0.292862
 H    -5.603540    -1.256711     1.577678
 O    -5.313158    -0.617174     0.892826
 H    -5.402378    -1.071517     0.049694
 H    -0.475712    -3.215519     3.039520
 O    -0.174196    -2.408190     3.489508
 H     0.774941    -2.310828     3.307152
 H     5.226353     1.023420    -1.004026
 O     4.433431     0.496324    -0.828007
 H     4.641230     0.077953     0.037326
 H     0.662813     2.393111     1.117031
 O     0.632314     2.050210     2.019521
 H     0.018267     1.294045     2.050838
 H     4.448548    -0.495392    -2.196302
 O     4.664333    -0.977974    -3.026413
 H     5.163921    -0.331976    -3.568917
 H     3.032262     3.260717    -0.872649
 O     3.910876     3.659794    -0.826001
 H     4.415744     3.370364    -1.610419
 H    -5.890322    -1.457488    -2.017046
 O    -5.374119    -2.161854    -1.568282
 H    -5.275707    -2.875433    -2.222158
 H    -5.010289    -4.046842     1.129863
 O    -5.689112    -3.411648     0.834067
 H    -5.436102    -3.124191    -0.053470
 H     2.753675     2.168785    -3.552917
 O     3.426930     1.484695    -3.746376
 H     3.523751     1.454690    -4.703747
 H    -5.280901     3.855334     3.674290
 O    -4.695729     4.443916     3.185810
 H    -4.181792     4.970877     3.834462
 H     0.702705     1.040059    -4.674257
 O     1.211427     0.926198    -5.503297
 H     1.811189     0.170300    -5.333623
 H     1.056073     5.805209    -2.191235
 O     1.836027     5.472881    -1.715059
 H     2.405072     5.027626    -2.373978
 H    -2.812902    -3.452159    -1.849281
 O    -2.984455    -3.708593    -0.927300
 H    -3.751527    -4.298284    -0.919715
 H     2.158021     5.193969    -4.419753
 O     1.293186     5.289456    -4.855640
 H     1.294593     4.596556    -5.543073
 H     7.748426     1.820401    -0.687889
 O     6.965777     1.462958    -1.147658
 H     7.337439     0.783199    -1.747099
 H     4.454574     2.763350     0.497746
 O     4.763907     2.398201     1.351598
 H     4.682948     3.145238     1.980259
 H     1.051063    -3.162099    -2.149545
 O     1.919550    -3.010436    -2.550143
 H     2.012096    -2.034688    -2.572721
 H     1.166344     4.608918    -0.503307
 O     0.688660     4.135496     0.215168
 H     0.005849     4.745916     0.546131
 H    -5.819661     1.009830     1.143988
 O    -6.306751     1.838141     1.327703
 H    -7.234427     1.606313     1.067334
 H    -2.342776    -2.634232     0.215273
 O    -1.878431    -2.069150     0.862155
 H    -0.971019    -2.415960     0.878077
 H    -3.830628    -0.375221     4.209429
 O    -3.846625    -0.515013     5.183820
 H    -4.608226    -1.092878     5.417534
 H    -6.199621    -2.877989     3.082569
 O    -5.754545    -2.020711     3.187171
 H    -4.802801    -2.250690     3.205658
 H    -2.842785    -0.370015    -3.040859
 O    -2.559229    -0.429453    -3.980479
 H    -2.403055    -1.396712    -4.060968
 H    -3.419692    -3.357418    -3.801456
 O    -2.564105    -2.981096    -3.535254
 H    -1.868376    -3.617611    -3.792961
 H     3.264295    -1.140641    -4.175123
 O     2.729349    -1.254664    -4.984189
 H     3.378160    -1.417216    -5.687900
 H     4.786109     2.374122    -6.462073
 O     4.251828     1.554069    -6.495978
 H     3.424825     1.797523    -6.920030
 H    -4.365433     0.917293     5.719588
 O    -4.850749     1.742663     5.976737
 H    -5.396232     1.973723     5.197794
 H    -4.047814    -0.106866     1.935459
 O    -3.525885     0.198585     2.697044
 H    -3.437414     1.170608     2.625264
 H    -5.795025     0.612104    -2.346667
 O    -6.329019    -0.046611    -2.837101
 H    -5.881696    -0.136439    -3.700779
 H     1.920566    -3.793639    -4.096282
 O     1.881400    -4.245634    -4.961947
 H     1.471896    -5.107957    -4.784798
 H     4.423926    -3.577275    -0.557699
 O     4.691619    -2.832810     0.024967
 H     3.931688    -2.204597     0.009411
 H    -0.264412     3.027997    -0.846258
 O    -1.003048     2.658975    -1.359168
 H    -1.717865     3.318190    -1.239220
 H     1.692453     4.370220     1.673732
 O     2.126300     4.495685     2.537374
 H     1.922196     3.701469     3.055513
 H     3.618424     1.144042     1.764534
 O     2.842673     0.565667     1.901608
 H     2.069241     1.151110     2.016989
 H     3.126463    -3.954487    -2.026301
 O     3.817632    -4.586839    -1.710257
 H     4.512897    -4.580057    -2.386908
 H     5.012205    -3.754236    -4.429463
 O     5.422050    -3.453190    -3.582191
 H     5.018404    -2.593886    -3.342591
 H    -1.157923     5.034050     2.173568
 O    -1.317416     5.597799     1.380720
 H    -1.940191     5.109104     0.783242
 H    -5.736835     3.189097     0.411621
 O    -5.267947     3.697488    -0.277366
 H    -5.712815     4.556324    -0.431191
 H     4.889398    -3.910038     3.013619
 O     4.149641    -3.723066     2.429667
 H     4.502268    -3.426414     1.560349
 H     5.754404    -1.330920     1.480726
 O     5.358785    -0.437084     1.473184
 H     6.143959     0.140729     1.542631
 H     1.603621    -6.658831    -3.064761
 O     1.442976    -6.865821    -4.010722
 H     2.326715    -6.937803    -4.400419
 H    -7.283725    -3.607611     0.601349
 O    -8.246784    -3.596816     0.378408
 H    -8.724764    -3.413160     1.216307
 H     3.110383    -2.474785     2.866444
 O     2.423058    -1.805941     3.046672
 H     2.659300    -0.995392     2.560299
 H    -2.073957     2.626047     5.110735
 O    -2.792541     3.270205     5.250767
 H    -3.543076     2.763954     5.615289
 H    -0.951349     0.855489     4.008556
 O    -0.847065     1.397948     4.822379
 H    -0.003508     1.850118     4.713152
 H     0.382927     3.521492    -6.851970
 O     1.333891     3.318648    -6.711893
 H     1.336969     2.462454    -6.243084
 H     6.981412    -2.933205     4.851068
 O     6.235786    -3.377279     4.381286
 H     5.420787    -3.025874     4.812400
 H     7.914728     1.441071     1.612573
 O     7.820854     0.510149     1.890523
 H     8.319976    -0.038617     1.256968
 H    -4.032648    -0.426952    -4.732030
 O    -4.953787    -0.460592    -5.088630
 H    -4.919948    -0.075453    -5.985613
 H     6.441763    -1.403984    -2.022516
 O     6.827902    -1.886666    -1.286615
 H     6.082136    -2.158993    -0.719753
 H     4.550441    -0.896939     4.547937
 O     4.974980    -0.148447     4.096413
 H     4.944443    -0.301414     3.127822
 H    -0.123391     3.272892     2.946278
 O    -0.758147     3.925201     3.305133
 H    -0.466905     4.173408     4.203794
 H     8.201183    -1.230564    -0.532605
 O     8.977570    -0.867191    -0.052439
 H     9.677859    -1.529283    -0.127266
 H     9.499488    -3.851955     2.325985
 O     9.223773    -3.654887     1.404691
 H     10.000992    -3.482706     0.862184
 H    -2.543036    -2.637683     3.786836
 O    -3.150447    -2.714154     3.041347
 H    -2.675594    -2.377737     2.239952
 H    -2.069097     0.858006    -6.289213
 O    -2.694746     1.607762    -6.333881
 H    -2.967216     1.781297    -5.408780
 H    -1.149531     3.911785    -5.462333
 O    -1.250703     3.888931    -6.442416
 H    -1.839216     3.130703    -6.607496
 H    -4.641972    -6.209081    -1.305106
 O    -5.121190    -5.465073    -0.910568
 H    -5.876111    -5.281665    -1.510196
 H     2.644896    -5.773302    -1.487448
 O     1.836813    -6.321835    -1.426114
 H     1.071914    -5.691550    -1.322894
 H     3.351206    -4.189215    -5.599658
 O     4.316886    -4.182348    -5.845329
 H     4.446627    -3.436760    -6.437649
 H     7.392389     3.425009     2.280661
 O     7.329131     3.077810     1.382113
 H     6.400581     2.749667     1.303746
 H     6.565418    -3.869234     0.453031
 O     7.055393    -4.679640     0.234952
 H     7.935030    -4.523793     0.631809
 H    -7.501458    -4.370024    -2.657564
 O    -7.279573    -5.302817    -2.441266
 H    -7.916362    -5.580556    -1.755238
 H    -4.525562     6.738236     4.927888
 O    -3.634835     6.403483     4.711240
 H    -3.170671     6.186259     5.534119
 H     7.118756     3.484150     5.044917
 O     7.135212     3.094094     4.161239
 H     7.384567     2.159235     4.290445
 H    -5.999881     0.833266     6.840164
 O    -6.776999     0.290019     7.108159
 H    -6.500700    -0.631071     6.968846
 H    -0.467506    -4.818142    -2.949656
 O    -0.613831    -4.711049    -3.907196
 H    -1.202990    -5.417797    -4.201054
 H     6.567816     0.186460     4.497843
 O     7.539040     0.375452     4.478279
 H     7.772887     0.344615     3.523163
 H     4.829784    -6.585629    -3.826002
 O     4.151609    -6.755191    -4.515078
 H     4.292475    -6.078716    -5.185847
 H    -5.849440    -1.800963    -5.375833
 O    -6.464218    -2.562364    -5.509499
 H    -7.310006    -2.136513    -5.805226
 H    -7.844369     0.601142     5.874986
 O    -8.388914     0.942593     5.121090
 H    -9.007672     1.567336     5.502934
 H    -5.317234     5.737253     2.257101
 O    -5.546250     6.652910     1.997313
 H    -4.687778     7.125225     2.003320
 H     5.820905     1.647801    -3.838729
 O     6.062540     0.868123    -4.384863
 H     5.591374     0.974746    -5.213523
 H    -5.912517     6.472983     0.334832
 O    -5.918548     6.257756    -0.621298
 H    -5.021119     6.496176    -0.936484
 H    -0.258550    -7.401881    -3.208883
 O    -0.973496    -7.532666    -2.575192
 H    -0.594238    -7.887280    -1.762427
 H    -2.702773    -1.647238     5.466752
 O    -2.054689    -2.376502     5.615353
 H    -1.224884    -1.913025     5.836240
 H     7.496474    -4.480839    -1.413606
 O     7.634610    -4.462466    -2.384940
 H     6.871369    -3.975858    -2.741085
 H    -8.808264    -2.866610    -3.489185
 O    -7.894429    -2.790818    -3.130607
 H    -7.332289    -2.594339    -3.895503
 H     8.868529    -3.298001    -2.742650
 O     9.503033    -2.563827    -2.906264
 H     8.961410    -1.743557    -2.826214
 H    -5.067930    -4.903143    -3.728860
 O    -5.032892    -3.941530    -3.589352
 H    -5.536573    -3.540462    -4.308372
 H    -3.620521     4.066190    -3.545348
 O    -3.337473     4.916064    -3.170471
 H    -3.610148     5.620315    -3.759857
 H    -0.202714     4.797125    -3.982201
 O    -0.865450     4.105297    -3.807373
 H    -1.655706     4.548288    -3.437898
 H    -2.121478    -4.130887     5.291188
 O    -2.408657    -4.987887     4.938869
 H    -3.335957    -4.839205     4.683486
 H    -2.362831     8.437559    -3.695599
 O    -2.566735     7.487483    -3.815285
 H    -2.347802     7.259740    -4.745740
 H    -3.095630     7.290934     3.265838
 O    -3.002241     7.495792     2.320354
 H    -2.397785     6.807723     1.974317
 H     4.666393     1.509820     4.325352
 O     4.515623     2.466804     4.165671
 H     5.394790     2.828875     3.945783
 H     7.686686    -1.835943     6.416723
 O     8.146209    -2.027496     5.575911
 H     8.114563    -1.175130     5.097760
 H     5.798445    -1.598536     7.893532
 O     6.512513    -1.073194     7.519111
 H     6.064756    -0.315999     7.079611
 H    -1.642408     5.724827    -6.424109
 O    -1.779929     6.663918    -6.225866
 H    -0.906426     7.088292    -6.299417
 H    -8.330287    -0.211952     3.792070
 O    -8.130095    -0.741222     3.007233
 H    -7.228564    -1.090998     3.124168
 H    -8.574060     0.152221     0.036081
 O    -8.619163     0.785520     0.771574
 H    -8.609780     0.233902     1.572360
 H     0.652599    -0.600731     5.937628
 O    -0.191738    -0.677981     6.440645
 H    -0.686643     0.099060     6.127517
 H    -0.471748     7.032923    -1.584130
 O    -0.411124     6.655656    -2.484691
 H    -1.256035     6.860282    -2.944804
 H     0.504895    -8.028843     0.541289
 O    -0.396444    -8.272425     0.280500
 H    -0.866285    -8.341890     1.139828
 H     1.852066     2.617997     5.327096
 O     1.881072     2.344696     4.385813
 H     2.827249     2.368696     4.152958
 H    -7.922030    -5.432678    -5.714968
 O    -7.018304    -5.289000    -6.040666
 H    -6.864150    -4.337471    -5.974705
 H     2.954782    -7.591898     1.077897
 O     2.069683    -7.224012     1.017323
 H     2.007416    -6.880589     0.088937
 H     3.436995     5.749914    -7.273612
 O     3.589825     4.789528    -7.402300
 H     2.755833     4.339391    -7.196852
 H    -0.571329     6.977972     0.583714
 O    -0.251901     7.687914     0.001589
 H    -0.926866     8.380184     0.045053
 H     4.274388     3.598202     5.368148
 O     4.173578     4.240048     6.112261
 H     5.047105     4.297209     6.508436
 H     7.445993     2.726363     7.013296
 O     6.920721     3.566576     6.934815
 H     7.400163     4.222642     7.439426
 H     4.004937    -8.002589    -0.992065
 O     4.511841    -7.475202    -0.353091
 H     4.967514    -6.824772    -0.911776
 H     6.705372    -5.935387    -2.570496
 O     5.935827    -6.534527    -2.543517
 H     6.271355    -7.446305    -2.475833
 H    -9.119214    -2.125707     2.811973
 O    -9.600576    -2.941241     2.558060
 H    -10.324754    -2.629966     1.988739
 H    -2.738504     8.744373     1.043135
 O    -2.577345     9.108309     0.156671
 H    -3.368893     9.672638    -0.026020
 H     7.881979     0.571893     7.549555
 O     8.237637     1.272785     6.992450
 H     8.107317     0.954457     6.082284
 H    -2.579865     5.055334     7.676548
 O    -2.279949     5.280645     6.797065
 H    -2.460742     4.479437     6.220088
 H    -6.296560    -6.361648    -3.490168
 O    -5.614559    -6.553453    -4.159471
 H    -6.037216    -6.259901    -4.995388
 H     6.664355    -2.829179     2.823156
 O     6.806177    -2.563101     1.895680
 H     7.756869    -2.636785     1.727181
 H     2.300688     6.708003    -0.708700
 O     2.543167     7.443627    -0.102509
 H     1.692771     7.779237     0.206788
 H    -4.206282    -7.310137    -3.007829
 O    -3.661150    -7.362575    -2.214369
 H    -2.744648    -7.483120    -2.521709
 H     0.955362     6.751330    -5.537257
 O     0.793196     7.627114    -5.959344
 H     0.796338     8.253796    -5.206464
 H    -8.304340    -1.595880    -1.829729
 O    -8.614784    -1.333846    -0.949067
 H    -8.398320    -2.126694    -0.408384
 H    -3.267306     7.145137    -2.179699
 O    -3.385950     6.958697    -1.238596
 H    -3.091428     7.756808    -0.751668
 H     2.698293    -4.589412     2.366210
 O     1.782286    -4.930299     2.350343
 H     1.845908    -5.817516     1.940494
 H    -8.781439    -0.686631    -5.194035
 O    -8.677560    -1.257772    -5.990672
 H    -8.375419    -0.653470    -6.691586
 H     7.585593    -0.127644    -3.743123
 O     8.165221    -0.110778    -2.962652
 H     8.800161     0.633660    -3.100389
 H     4.173546     6.665340     0.079931
 O     4.885122     6.030250    -0.099772
 H     4.430787     5.195718    -0.351291
 H    -7.947148     0.204270    -3.351756
 O    -8.835971     0.225591    -3.763061
 H    -9.454348    -0.012736    -3.070987
 H     6.140972     3.808038    -3.098854
 O     5.655283     3.021811    -2.787625
 H     6.229391     2.588819    -2.111127
 H    -1.416915    -6.916416     0.041158
 O    -2.026321    -6.172059    -0.140350
 H    -2.606158    -6.470162    -0.847847
 H    -4.061659    -7.792330     0.876813
 O    -4.307363    -7.542492     1.770622
 H    -4.091166    -6.582339     1.846718
 H    -2.965022    -5.091795     1.096190
 O    -3.690150    -4.976255     1.731597
 H    -3.416991    -4.264377     2.345302
 H     5.077673    -6.256155     4.897235
 O     4.334837    -6.008326     4.343510
 H     4.650685    -6.092159     3.428140
 H    -9.562528    -6.145480    -4.119583
 O    -9.557511    -5.679454    -4.987171
 H    -10.187930    -6.144201    -5.537809
 H     6.174940    -5.696710     1.317053
 O     5.648110    -6.290512     1.891093
 H     5.204442    -6.875302     1.265381
 H    -1.502890    -6.765931     2.514634
 O    -1.648599    -7.726096     2.558738
 H    -2.609009    -7.846234     2.531171
 H    -10.049194    -3.974003    -4.695630
 O    -10.180991    -3.049751    -4.424958
 H    -9.930342    -2.495190    -5.176267
 H     0.492290     7.974177    -3.163224
 O     0.823326     8.810866    -3.551639
 H     1.717215     8.945570    -3.173355
 H    -9.132228    -7.908386    -2.739842
 O    -9.718388    -7.150219    -2.748721
 H    -9.616313    -6.722522    -1.879235
 H     1.923357     0.608377     4.646902
 O     2.005890    -0.246494     5.111072
 H     2.230613    -0.922211     4.436856
 H    -6.448200     0.460986    -7.703083
 O    -7.409486     0.549497    -7.595845
 H    -7.567439     1.449988    -7.309607
 H     6.342420     3.914366    -7.099081
 O     5.733922     3.844946    -6.363615
 H     4.897461     4.311378    -6.670988
 H    -5.385034     10.294148     0.629944
 O    -4.875881     10.319000    -0.191265
 H    -5.449331     9.841619    -0.822819
 H    -0.743849    -1.081921    -5.754240
 O    -0.889936    -0.421139    -6.465678
 H    -0.104584     0.154867    -6.391726
 H     4.831386    -0.415634    -6.816158
 O     4.906367    -1.351779    -6.601847
 H     5.741247    -1.459114    -6.112631
 H     2.495730    -8.838547    -2.607689
 O     3.452577    -8.771704    -2.582463
 H     3.698109    -8.180634    -3.309595
 H    -4.126958    -0.378875    -7.944709
 O    -4.641224     0.374411    -7.616435
 H    -3.966717     1.011120    -7.286539
 H     1.146027     3.683599     6.751645
 O     1.885536     3.085228     6.974519
 H     2.702997     3.606903     6.872689
 H    -11.405408    -2.611392    -0.222679
 O    -10.999303    -1.981672     0.373225
 H    -10.254759    -1.589140    -0.115993
 H    -7.635161     1.974648     7.479140
 O    -8.104232     2.816831     7.390916
 H    -8.240495     3.149258     8.277595
 H     6.128829    -9.068555    -1.053029
 O     6.232346    -9.183536    -2.002664
 H     5.353215    -9.403162    -2.335680
 H     6.575791     5.212673    -0.579917
 O     7.218220     4.550055    -0.853628
 H     7.393213     4.009003    -0.057550
 H    -5.560398    -2.870916     5.736946
 O    -5.586218    -2.111359     6.359899
 H    -4.974813    -2.370158     7.071063
 H     2.390321     1.428156     7.567355
 O     2.856998     0.584116     7.486766
 H     2.554209     0.203719     6.635395
 H    -2.925548    -2.882944     7.005527
 O    -3.431640    -3.019562     7.835486
 H    -2.824142    -2.696880     8.516911
 H     5.576105     1.979297     6.833313
 O     5.292542     1.107298     6.552806
 H     4.398314     0.957569     6.925141
 H     1.819960    -4.387716     4.172856
 O     2.284465    -4.331261     5.020366
 H     2.983030    -5.005450     4.948583
 H     10.471764    -2.762397    -1.538572
 O     10.931824    -2.807020    -0.653484
 H     11.804702    -3.169630    -0.832030
 H     3.906699     8.280879    -2.716334
 O     3.220514     8.855993    -2.355464
 H     3.025582     8.501601    -1.468638
 H    -8.244836    -6.446170     0.200200
 O    -8.877352    -6.018999    -0.400024
 H    -8.826595    -5.071128    -0.124130
 H    -0.693956     9.690901    -3.186359
 O    -1.636073     9.858866    -2.994129
 H    -1.722532     9.972728    -2.045166
 H     4.154583     4.018137    -3.612935
 O     3.604344     4.806657    -3.645138
 H     4.163844     5.578623    -3.418686
 H     5.173613     6.582360    -1.775630
 O     5.123154     6.798469    -2.726990
 H     5.911807     6.438798    -3.154029
 H    -0.565714     5.154359     6.145915
 O     0.161804     4.676116     5.723676
 H     0.861791     5.318033     5.453190
 H     3.039738     5.528488     5.287523
 O     2.286505     5.974034     4.871927
 H     2.253148     5.648360     3.958434
 H    -7.211473     9.000916    -0.239279
 O    -6.902673     8.780694    -1.127969
 H    -6.673445     7.835044    -1.099372
 H    -1.456176    -5.047684     3.563819
 O    -0.990125    -4.954675     2.701751
 H    -0.074171    -5.221364     2.816734
 H     4.032178    -2.188349     6.358861
 O     4.052463    -2.337608     5.389297
 H     3.340889    -2.982174     5.198057
 H     6.965661    -6.201917     3.334006
 O     7.325075    -5.843208     4.155157
 H     6.850735    -5.002932     4.300153
 H     8.872819    -4.876420     4.123856
 O     9.511206    -4.148079     4.005797
 H     9.232767    -3.448754     4.609855
 H     3.190785     7.965399    -7.902344
 O     3.176859     7.424226    -7.114309
 H     2.295982     7.574962    -6.692890
 H    -0.832065    -1.353692     8.129876
 O    -1.056319    -1.992140     8.821390
 H    -0.347520    -2.641471     8.807525
 H     8.414064     4.350926    -2.098012
 O     9.053468     4.405333    -2.849348
 H     9.704146     5.036097    -2.522381
 H     6.452299     4.691146    -4.965101
 O     6.749359     5.090729    -4.127528
 H     7.693446     4.928780    -4.008549
 H     10.694595     1.518462    -3.671664
 O     9.984700     1.839919    -3.064985
 H     9.743901     2.761143    -3.267282
 H     2.911532    -2.471340     7.986069
 O     3.745336    -1.962667     8.009417
 H     3.469079    -1.036534     8.084745
 H    -2.294945    -1.926874    -8.796677
 O    -2.720454    -1.598156    -8.005772
 H    -2.025757    -1.147573    -7.478339
 H     5.022853     5.370500     1.716652
 O     4.798231     4.813464     2.472854
 H     3.827106     4.841808     2.550477
 H    -3.721303    -6.278999    -4.887129
 O    -2.911001    -5.768194    -4.948720
 H    -3.127529    -4.988594    -5.484423
 H    -6.714815     6.160187     4.861566
 O    -6.271107     6.984853     4.590076
 H    -6.118355     6.905330     3.622311
 H    -7.638620     4.126006     6.051617
 O    -7.360416     4.558964     5.234769
 H    -7.103813     3.833875     4.642166
 H    -7.349208     9.500790     2.393848
 O    -7.087403     9.895352     1.536812
 H    -7.552539     10.730776     1.480661
 H    -6.071154    -6.941121     1.596758
 O    -6.674879    -6.307768     1.178292
 H    -6.122356    -5.863879     0.499722
 H    -4.000404    -4.730166     7.577878
 O    -4.227719    -5.572201     7.144050
 H    -3.427755    -5.844380     6.679556
 H     9.499846     0.848771    -0.146226
 O     9.508743     1.815224    -0.285869
 H     9.896979     1.893343    -1.173472
 H    -8.094186    -4.200716     3.128616
 O    -7.169216    -4.466900     3.149590
 H    -7.027845    -5.105160     2.421224
 H     0.852696    -2.333949     6.961599
 O     1.342814    -3.077118     7.329806
 H     1.570149    -3.646345     6.577911
 H    -3.361984    -2.850884    -6.860957
 O    -3.789339    -3.479814    -6.261037
 H    -4.735758    -3.345371    -6.361286
 H    -8.814963     8.380140     3.768822
 O    -8.025472     8.909890     3.889344
 H    -7.357019     8.311713     4.285196
 H     8.042357    -2.239072    -4.954294
 O     7.130244    -1.958425    -5.098278
 H     6.622426    -2.568469    -4.520018
 H    -5.077656    -4.926747     5.713928
 O    -5.106070    -4.340196     4.932817
 H    -5.858794    -4.585424     4.375676
 N     11.744819     0.190645    -4.446393
 H     11.845260     0.172095    -5.457001
 H     11.266522    -0.668034    -4.180071
 H     12.681107     0.138459    -4.054889
