604
grain_mol45 // -1503.049715334777 // -34.8879579016 // -515.154878446377 // -1022.78279479 // -0.0312710512 // -0.583305471787 // -0.008505488784
 H    -1.763213     0.048896     2.490930
 O    -0.783744     0.043939     2.550877
 H    -0.534163    -0.843534     2.901619
 H    -0.561238    -1.959094    -2.807766
 O    -0.615596    -1.941447    -1.839788
 H    -1.555186    -1.807715    -1.631009
 H    -2.686097     1.927817     0.823654
 O    -2.627996     1.259587     0.120179
 H    -1.841893     1.495701    -0.404791
 H    -3.752441     1.937632    -3.029596
 O    -3.240906     2.237882    -3.817132
 H    -2.327083     2.346266    -3.533756
 H    -0.178593    -0.673280    -0.793894
 O    -0.013731     0.073976    -0.186902
 H    -0.434421    -0.168068     0.648695
 H     0.750160    -2.139688    -4.756788
 O    -0.190101    -2.279702    -4.556856
 H    -0.319591    -3.240076    -4.555773
 H    -4.901999     2.514872    -1.281814
 O    -4.573574     1.663497    -1.630838
 H    -3.895713     1.383383    -0.970734
 H    -3.401873     3.558361     2.427571
 O    -2.707586     2.905247     2.215494
 H    -1.913584     3.236177     2.674510
 H     2.472906     0.042693    -3.011381
 O     1.853619    -0.552911    -2.542318
 H     0.958660    -0.216152    -2.740633
 H    -1.228343     0.218972    -3.601437
 O    -0.399406     0.677610    -3.351547
 H    -0.610735     1.308655    -2.643833
 H     2.629951    -0.687721     0.522262
 O     2.496493    -1.451329    -0.076692
 H     2.229891    -1.088738    -0.942848
 H    -2.908131    -0.405671    -0.538763
 O    -3.079047    -0.890655    -1.357066
 H    -3.901253    -1.401987    -1.246398
 H     2.819063     1.092399    -0.912780
 O     2.021470     1.640055    -0.802807
 H     1.286317     1.026949    -0.589781
 H     0.593055     3.022005    -3.373460
 O     1.508630     2.811536    -3.147587
 H     1.511507     2.381303    -2.273030
 H    -0.068892    -4.036020    -0.428143
 O    -0.340071    -4.736907    -1.063373
 H    -1.132185    -5.145169    -0.644911
 H    -6.129367     2.456265     3.037679
 O    -6.160629     2.694929     4.001095
 H    -6.923463     2.208657     4.371310
 H     0.991146    -3.740987     1.395331
 O     0.590779    -3.100871     0.778810
 H     1.290198    -2.478401     0.493185
 H    -2.745136     5.270349    -1.143779
 O    -2.584574     4.486205    -0.585968
 H    -3.481883     4.161127    -0.363690
 H    -5.549749    -1.019721     1.813171
 O    -5.267388    -0.420050     1.089907
 H    -5.408689    -0.905406     0.271556
 H    -0.434953    -3.103653     3.141740
 O    -0.086977    -2.289619     3.543355
 H     0.856558    -2.234709     3.318968
 H     5.228808     0.755645    -1.311840
 O     4.428035     0.262915    -1.082609
 H     4.658629    -0.127274    -0.209250
 H     0.813088     2.375395     0.936113
 O     0.810819     2.071477     1.852820
 H     0.172860     1.340208     1.943080
 H     4.349963    -0.782737    -2.404926
 O     4.514842    -1.306679    -3.221939
 H     5.010083    -0.701811    -3.812681
 H     3.122886     3.073802    -1.182586
 O     4.015792     3.443176    -1.193829
 H     4.472794     3.101329    -1.985875
 H    -5.998635    -1.357779    -1.754760
 O    -5.488141    -2.061433    -1.298477
 H    -5.443214    -2.804530    -1.924743
 H    -5.074135    -3.845833     1.460407
 O    -5.742646    -3.199089     1.166086
 H    -5.518156    -2.957875     0.257386
 H     2.691980     1.882964    -3.802537
 O     3.334749     1.169666    -3.995344
 H     3.384547     1.094620    -4.953856
 H    -4.958717     4.158727     3.674379
 O    -4.375284     4.705223     3.137306
 H    -3.815424     5.238740     3.741026
 H     0.556051     0.785084    -4.788759
 O     1.025664     0.619536    -5.632153
 H     1.603843    -0.151425    -5.456004
 H     1.182068     5.632830    -2.527800
 O     1.970808     5.292468    -2.072011
 H     2.492707     4.798078    -2.734569
 H    -2.988377    -3.455277    -1.630815
 O    -3.128600    -3.667041    -0.692405
 H    -3.914648    -4.227511    -0.627432
 H     2.164744     4.889968    -4.773251
 O     1.285905     4.999116    -5.176249
 H     1.233115     4.278748    -5.832786
 H     7.786022     1.471850    -1.128395
 O     6.976701     1.126887    -1.547865
 H     7.297833     0.406451    -2.127179
 H     4.585338     2.584066     0.145302
 O     4.922946     2.239320     0.996505
 H     4.892140     3.008122     1.602879
 H     0.867200    -3.320265    -2.103599
 O     1.722040    -3.216460    -2.546723
 H     1.846879    -2.246493    -2.614000
 H     1.323337     4.503689    -0.796948
 O     0.861141     4.077285    -0.040302
 H     0.215233     4.725123     0.293874
 H    -5.705400     1.233288     1.292434
 O    -6.154884     2.085850     1.460483
 H    -7.100498     1.877545     1.249403
 H    -2.400969    -2.571133     0.375804
 O    -1.889706    -1.996835     0.977551
 H    -0.995145    -2.375829     0.971075
 H    -3.635253    -0.096375     4.328600
 O    -3.614255    -0.194991     5.307847
 H    -4.384471    -0.734753     5.597610
 H    -6.136443    -2.554942     3.409263
 O    -5.657723    -1.710908     3.458150
 H    -4.714619    -1.974620     3.447172
 H    -2.961943    -0.425619    -2.950261
 O    -2.721161    -0.533911    -3.897476
 H    -2.602982    -1.508843    -3.943069
 H    -3.675207    -3.418537    -3.558000
 O    -2.796176    -3.063109    -3.344561
 H    -2.135074    -3.735080    -3.603307
 H     3.058875    -1.466326    -4.303926
 O     2.486884    -1.592838    -5.085056
 H     3.098645    -1.808965    -5.807200
 H     4.602540     1.895417    -6.800578
 O     4.040769     1.094003    -6.776308
 H     3.204844     1.347661    -7.176326
 H    -4.058744     1.275909     5.803410
 O    -4.503657     2.128338     6.045123
 H    -5.073647     2.346974     5.280350
 H    -3.940996     0.086121     2.056122
 O    -3.376303     0.403249     2.781526
 H    -3.257046     1.367579     2.664942
 H    -5.845529     0.691703    -2.175973
 O    -6.422895     0.033497    -2.615259
 H    -6.016707    -0.108170    -3.492181
 H     1.628615    -4.062286    -4.056338
 O     1.537119    -4.547530    -4.899762
 H     1.105689    -5.386361    -4.669365
 H     4.289572    -3.791797    -0.638306
 O     4.609298    -3.033615    -0.101551
 H     3.870923    -2.379972    -0.109962
 H    -0.174769     2.962982    -1.011900
 O    -0.946745     2.600656    -1.478385
 H    -1.632753     3.289429    -1.356168
 H     1.934688     4.333272     1.365889
 O     2.411220     4.479212     2.203230
 H     2.202920     3.715974     2.764873
 H     3.750577     1.045769     1.515055
 O     2.960308     0.503068     1.703507
 H     2.214548     1.121259     1.829881
 H     2.916847    -4.181708    -2.034069
 O     3.598762    -4.825190    -1.720390
 H     4.263274    -4.873865    -2.425271
 H     4.702640    -4.149950    -4.520869
 O     5.160887    -3.828091    -3.706347
 H     4.794974    -2.947550    -3.484986
 H    -0.865294     5.122879     1.954201
 O    -1.039256     5.658962     1.145015
 H    -1.704368     5.169268     0.596060
 H    -5.578231     3.375821     0.464929
 O    -5.122246     3.838173    -0.264074
 H    -5.543390     4.705534    -0.435490
 H     4.896333    -3.992754     2.923270
 O     4.139669    -3.805852     2.361149
 H     4.465497    -3.557259     1.467124
 H     5.784070    -1.514968     1.244762
 O     5.419223    -0.608739     1.211285
 H     6.225152    -0.056603     1.229838
 H     1.256945    -6.868724    -2.891751
 O     1.048594    -7.107682    -3.820760
 H     1.911615    -7.229000    -4.243194
 H    -7.351641    -3.345761     1.008791
 O    -8.322476    -3.308785     0.825922
 H    -8.757078    -3.073487     1.674476
 H     3.164007    -2.502547     2.788075
 O     2.507681    -1.802861     2.966020
 H     2.752302    -1.021261     2.438306
 H    -1.737153     2.873644     5.026854
 O    -2.426749     3.548478     5.168686
 H    -3.177379     3.085228     5.586215
 H    -0.725511     1.019141     3.955380
 O    -0.568057     1.591033     4.739689
 H     0.286410     2.005546     4.577866
 H     0.229860     3.185126    -7.055347
 O     1.178461     2.953633    -6.946376
 H     1.171633     2.117922    -6.442026
 H     7.099332    -3.017878     4.626765
 O     6.319157    -3.454553     4.206886
 H     5.536559    -3.056656     4.657435
 H     8.042932     1.181457     1.169244
 O     7.928088     0.265617     1.485131
 H     8.381013    -0.326186     0.856502
 H    -4.225073    -0.508391    -4.586434
 O    -5.161324    -0.522819    -4.902504
 H    -5.152990    -0.176547    -5.815771
 H     6.309438    -1.760747    -2.279592
 O     6.717432    -2.215645    -1.537821
 H     5.989878    -2.442740    -0.928001
 H     4.729474    -0.911673     4.340874
 O     5.157297    -0.198737     3.838012
 H     5.078902    -0.391973     2.880385
 H     0.139136     3.358454     2.758010
 O    -0.456641     4.048184     3.113566
 H    -0.118357     4.322720     3.988098
 H     8.143315    -1.585031    -0.870967
 O     8.955081    -1.226630    -0.448542
 H     9.625391    -1.920282    -0.515996
 H     9.470537    -4.132983     2.041896
 O     9.163767    -3.962929     1.124594
 H     9.923626    -3.844032     0.544598
 H    -2.446928    -2.419910     3.949679
 O    -3.088129    -2.504778     3.233892
 H    -2.636793    -2.219014     2.400009
 H    -2.287342     0.638607    -6.277432
 O    -2.887354     1.408632    -6.327912
 H    -3.113737     1.629690    -5.400497
 H    -1.226728     3.687848    -5.620736
 O    -1.370373     3.628331    -6.593949
 H    -1.991856     2.886231    -6.701918
 H    -4.887038    -6.118548    -0.893517
 O    -5.322430    -5.341747    -0.511602
 H    -6.095819    -5.155761    -1.086364
 H     2.395679    -5.958082    -1.397837
 O     1.572333    -6.473546    -1.280313
 H     0.835033    -5.811948    -1.171791
 H     2.978364    -4.571841    -5.599499
 O     3.932466    -4.609417    -5.885122
 H     4.061298    -3.895486    -6.515384
 H     7.594319     3.194388     1.760766
 O     7.510792     2.818507     0.869334
 H     6.561221     2.528929     0.853634
 H     6.460889    -4.120399     0.297019
 O     6.913046    -4.955286     0.089436
 H     7.813576    -4.816766     0.443638
 H    -7.736496    -4.233099    -2.202645
 O    -7.538097    -5.163717    -1.956327
 H    -8.153864    -5.389532    -1.233032
 H    -4.050039     7.061181     4.771446
 O    -3.181586     6.686066     4.531935
 H    -2.690382     6.484849     5.343216
 H     7.417392     3.207617     4.656424
 O     7.470642     2.930170     3.720579
 H     7.744606     1.992918     3.799699
 H    -5.645290     1.297940     6.993481
 O    -6.428697     0.795050     7.316436
 H    -6.190779    -0.140496     7.205388
 H    -0.741643    -4.950258    -2.768694
 O    -0.925105    -4.877227    -3.723072
 H    -1.550748    -5.573349    -3.961789
 H     6.780418     0.095974     4.164279
 O     7.755964     0.240705     4.091688
 H     7.943741     0.160906     3.131150
 H     4.448197    -6.945569    -3.789168
 O     3.734977    -7.117703    -4.441189
 H     3.870767    -6.475828    -5.146078
 H    -6.114919    -1.840276    -5.094658
 O    -6.761010    -2.583469    -5.170055
 H    -7.603487    -2.139459    -5.448035
 H    -7.536593     1.093997     6.116868
 O    -8.101065     1.423941     5.372489
 H    -8.680558     2.086057     5.752953
 H    -4.990777     5.980926     2.181267
 O    -5.198692     6.892822     1.891975
 H    -4.324856     7.333217     1.842241
 H     5.721024     1.238893    -4.195107
 O     5.918779     0.431116    -4.717448
 H     5.412206     0.515616    -5.527680
 H    -5.642673     6.658153     0.255701
 O    -5.697547     6.404487    -0.689419
 H    -4.806757     6.596458    -1.051483
 H    -0.634217    -7.548593    -2.925897
 O    -1.325228    -7.626629    -2.257925
 H    -0.923976    -7.961302    -1.447246
 H    -2.498872    -1.356076     5.591002
 O    -1.871145    -2.102121     5.742762
 H    -1.016784    -1.660748     5.909493
 H     7.287545    -4.842841    -1.580806
 O     7.385068    -4.868087    -2.557072
 H     6.623535    -4.370783    -2.902251
 H    -9.024768    -2.718296    -3.042449
 O    -8.094183    -2.661266    -2.725918
 H    -7.559157    -2.517228    -3.521304
 H     8.606112    -3.744481    -3.003454
 O     9.260100    -3.051364    -3.234652
 H     8.792972    -2.200326    -3.154679
 H    -5.371569    -4.898674    -3.350852
 O    -5.296802    -3.934040    -3.254293
 H    -5.817040    -3.544763    -3.967978
 H    -3.605854     4.011449    -3.610284
 O    -3.276726     4.865174    -3.284983
 H    -3.550973     5.553933    -3.891668
 H    -0.187147     4.598732    -4.220225
 O    -0.864712     3.938789    -3.988735
 H    -1.622989     4.424606    -3.606097
 H    -2.012531    -3.864739     5.497280
 O    -2.344725    -4.724183     5.193771
 H    -3.276466    -4.551935     4.971592
 H    -2.204217     8.324081    -3.999693
 O    -2.445432     7.377849    -4.069937
 H    -2.275615     7.104194    -4.998251
 H    -2.675060     7.492163     3.028942
 O    -2.614923     7.654670     2.072528
 H    -2.050563     6.930979     1.731521
 H     4.870097     1.451726     4.054294
 O     4.783408     2.406364     3.820295
 H     5.711522     2.634796     3.591331
 H     7.907892    -1.887803     6.113996
 O     8.323368    -2.130698     5.263041
 H     8.300572    -1.295092     4.754418
 H     6.092914    -1.516915     7.655830
 O     6.811102    -1.040568     7.228059
 H     6.377895    -0.280190     6.777956
 H    -1.697498     5.476521    -6.637802
 O    -1.793327     6.427358    -6.473984
 H    -0.909755     6.816119    -6.602559
 H    -8.140213     0.214270     4.092726
 O    -7.992754    -0.353722     3.323423
 H    -7.099780    -0.731290     3.417449
 H    -8.533312     0.432303     0.338120
 O    -8.524484     1.096617     1.047104
 H    -8.499658     0.578479     1.869649
 H     0.907857    -0.414375     5.876896
 O     0.082833    -0.440921     6.416175
 H    -0.396764     0.341147     6.092299
 H    -0.273925     6.939081    -1.910511
 O    -0.264772     6.523661    -2.796179
 H    -1.121418     6.739295    -3.228957
 H     0.268133    -8.048249     0.812458
 O    -0.651540    -8.269047     0.599841
 H    -1.086066    -8.285834     1.480180
 H     2.192212     2.729820     5.079866
 O     2.170574     2.418092     4.149622
 H     3.106886     2.396807     3.878995
 H    -8.325567    -5.404529    -5.191799
 O    -7.432313    -5.307505    -5.560770
 H    -7.242445    -4.360351    -5.541923
 H     2.752681    -7.679720     1.227741
 O     1.879106    -7.282654     1.187908
 H     1.789022    -6.975667     0.249237
 H     3.339026     5.280853    -7.698333
 O     3.453501     4.310809    -7.790055
 H     2.613305     3.900318    -7.533016
 H    -0.281039     6.976766     0.259712
 O     0.037792     7.650252    -0.364699
 H    -0.610540     8.367662    -0.322789
 H     4.664973     3.554444     5.043418
 O     4.551810     4.302615     5.693133
 H     5.350429     4.241225     6.234930
 H     7.875084     2.860870     6.727150
 O     7.200101     3.547486     6.536154
 H     7.666336     4.370778     6.256894
 H     3.697428    -8.213469    -0.865392
 O     4.249399    -7.678899    -0.271308
 H     4.703067    -7.069313    -0.875694
 H     6.398295    -6.314258    -2.641823
 O     5.609576    -6.881900    -2.557554
 H     5.914727    -7.802292    -2.464476
 H    -9.037039    -1.707921     3.228862
 O    -9.557136    -2.514958     3.030174
 H    -10.293953    -2.200936     2.478877
 H    -2.363672     8.838794     0.733322
 O    -2.228150     9.160274    -0.173655
 H    -3.006997     9.744934    -0.347005
 H     8.259476     0.585046     7.149690
 O     8.608687     1.248304     6.546217
 H     8.415938     0.899652     5.659917
 H    -2.047015     5.421997     7.505767
 O    -1.779396     5.601104     6.605485
 H    -2.011005     4.783516     6.071253
 H    -6.638788    -6.300146    -2.999191
 O    -5.993398    -6.543982    -3.687596
 H    -6.441387    -6.269909    -4.516902
 H     6.696494    -2.986666     2.612886
 O     6.808459    -2.766496     1.668882
 H     7.748260    -2.882331     1.466924
 H     2.521144     6.548936    -1.138689
 O     2.816098     7.299418    -0.575386
 H     1.992211     7.677985    -0.244422
 H    -4.564009    -7.303976    -2.564489
 O    -3.987236    -7.343561    -1.792964
 H    -3.089638    -7.510250    -2.132787
 H     0.970186     6.443029    -5.904726
 O     0.821468     7.306133    -6.356748
 H     0.878377     7.962674    -5.632047
 H    -8.405600    -1.399791    -1.461138
 O    -8.668342    -1.090450    -0.580307
 H    -8.456514    -1.867761    -0.015717
 H    -3.086805     7.129164    -2.393508
 O    -3.170729     6.986014    -1.441181
 H    -2.828090     7.792202    -1.001389
 H     2.656884    -4.619356     2.396111
 O     1.729634    -4.926570     2.431934
 H     1.744702    -5.831895     2.058814
 H    -8.995695    -0.612735    -4.838308
 O    -8.946252    -1.219582    -5.613504
 H    -8.653923    -0.656097    -6.351578
 H     7.406467    -0.501311    -4.085036
 O     8.065538    -0.538426    -3.372668
 H     8.758939     0.093898    -3.608396
 H     4.424579     6.469543    -0.430361
 O     5.105278     5.802836    -0.615985
 H     4.610480     4.975232    -0.807931
 H    -8.052025     0.322008    -3.072124
 O    -8.956474     0.359050    -3.446589
 H    -9.552311     0.172016    -2.719840
 H     6.148944     3.415522    -3.562745
 O     5.651643     2.660369    -3.198214
 H     6.236604     2.236349    -2.526133
 H    -1.633401    -6.887479     0.346067
 O    -2.223529    -6.129304     0.158084
 H    -2.843696    -6.435068    -0.510883
 H    -4.268467    -7.630858     1.327933
 O    -4.466804    -7.335482     2.219612
 H    -4.213920    -6.381647     2.245685
 H    -3.069738    -4.965620     1.386066
 O    -3.762509    -4.797387     2.045342
 H    -3.438377    -4.071533     2.616450
 H     5.083944    -6.265284     4.894697
 O     4.326512    -6.015689     4.361877
 H     4.600237    -6.147612     3.438739
 H    -9.919406    -5.990466    -3.500429
 O    -9.935647    -5.560992    -4.386560
 H    -10.605072    -6.024614    -4.890099
 H     6.044445    -5.895819     1.250456
 O     5.522550    -6.445699     1.870489
 H     5.031901    -7.039102     1.289600
 H    -1.606876    -6.632494     2.812480
 O    -1.784193    -7.584118     2.902710
 H    -2.748479    -7.669790     2.921140
 H    -10.354558    -3.828209    -4.147657
 O    -10.442172    -2.889370    -3.911448
 H    -10.205100    -2.375805    -4.695581
 H     0.653032     7.778754    -3.567341
 O     0.996361     8.585889    -4.004733
 H     1.909529     8.703630    -3.669750
 H    -9.491664    -7.709699    -2.065891
 O    -10.050800    -6.931518    -2.082698
 H    -9.896429    -6.472473    -1.237237
 H     2.164291     0.693673     4.483569
 O     2.233610    -0.144701     4.978865
 H     2.407459    -0.854916     4.325964
 H    -6.734504     0.344497    -7.489284
 O    -7.686552     0.472518    -7.345831
 H    -7.800535     1.389199    -7.091935
 H     6.182130     3.350489    -7.566921
 O     5.606960     3.336979    -6.801927
 H     4.772644     3.817715    -7.094588
 H    -4.969867     10.466477     0.365291
 O    -4.496099     10.438818    -0.476759
 H    -5.112744     9.957169    -1.062787
 H    -1.008408    -1.324925    -5.716052
 O    -1.161789    -0.688985    -6.448310
 H    -0.354558    -0.139584    -6.432080
 H     4.536024    -0.908811    -7.038365
 O     4.588493    -1.836497    -6.784414
 H     5.440182    -1.952663    -6.327326
 H     2.091646    -9.059387    -2.379090
 O     3.050416    -9.026293    -2.396939
 H     3.284477    -8.475387    -3.158535
 H    -4.456532    -0.589102    -7.791540
 O    -4.929434     0.195440    -7.474477
 H    -4.219555     0.820063    -7.200632
 H     1.588772     3.879481     6.486167
 O     2.314467     3.262810     6.701046
 H     3.147044     3.747910     6.539616
 H    -11.467778    -2.233992     0.315748
 O    -11.014735    -1.595374     0.866646
 H    -10.278698    -1.250997     0.330545
 H    -7.210604     2.523821     7.650712
 O    -7.653447     3.378308     7.546549
 H    -7.739352     3.751481     8.423269
 H     5.778771    -9.358158    -0.969468
 O     5.836675    -9.514533    -1.917068
 H     4.937034    -9.716587    -2.203113
 H     6.742007     4.902819    -1.129374
 O     7.352319     4.206143    -1.392231
 H     7.536659     3.696187    -0.576728
 H    -5.383171    -2.462088     6.032134
 O    -5.355703    -1.677106     6.622634
 H    -4.723209    -1.928497     7.317896
 H     2.784666     1.615695     7.344572
 O     3.212985     0.750045     7.284007
 H     2.865376     0.348454     6.460526
 H    -2.698012    -2.518586     7.188719
 O    -3.172399    -2.602139     8.044078
 H    -2.524762    -2.274471     8.685053
 H     5.971264     2.006737     6.439707
 O     5.627557     1.138406     6.218174
 H     4.749867     1.051634     6.642548
 H     1.864536    -4.312154     4.227050
 O     2.366056    -4.238543     5.051733
 H     3.037744    -4.939445     4.979838
 H     10.241166    -3.223780    -1.918831
 O     10.755413    -3.219910    -1.066298
 H     11.679927    -3.236185    -1.307654
 H     4.091433     7.978563    -3.277210
 O     3.443662     8.593542    -2.911407
 H     3.273826     8.281810    -2.003592
 H    -8.427552    -6.161272     0.769464
 O    -9.070096    -5.736231     0.178430
 H    -8.974480    -4.780328     0.411379
 H    -0.472348     9.535470    -3.614021
 O    -1.398798     9.745650    -3.390103
 H    -1.440489     9.901178    -2.444033
 H     4.151444     3.674722    -4.001560
 O     3.629657     4.481664    -4.045364
 H     4.224307     5.241214    -3.874422
 H     5.335934     6.275016    -2.318547
 O     5.255245     6.453292    -3.275988
 H     6.012717     6.048599    -3.717961
 H    -0.097784     5.387187     5.887777
 O     0.592050     4.865092     5.454848
 H     1.304119     5.467816     5.130475
 H     3.475193     5.587875     4.870681
 O     2.724491     6.048045     4.464421
 H     2.640304     5.682743     3.569485
 H    -6.876302     9.206378    -0.371123
 O    -6.613670     8.938752    -1.261643
 H    -6.416798     7.987235    -1.202338
 H    -1.455298    -4.875280     3.784239
 O    -1.024085    -4.835723     2.900157
 H    -0.113657    -5.130054     2.988537
 H     4.246419    -2.105827     6.223027
 O     4.217902    -2.297707     5.261003
 H     3.476063    -2.922337     5.129270
 H     6.903140    -6.345075     3.253645
 O     7.310591    -5.966026     4.042503
 H     6.873123    -5.103221     4.171351
 H     8.888594    -5.058453     3.905459
 O     9.545811    -4.359342     3.728711
 H     9.318215    -3.625903     4.313654
 H     3.143219     7.474828    -8.410741
 O     3.144409     6.968127    -7.599951
 H     2.288004     7.168393    -7.149511
 H    -0.505754    -1.021838     8.158873
 O    -0.722870    -1.623250     8.885045
 H    -0.037608    -2.297385     8.869772
 H     8.440720     4.040725    -2.604279
 O     9.102666     4.013164    -3.342766
 H     9.854110     4.511233    -3.021038
 H     6.406383     4.211887    -5.475598
 O     6.761932     4.626656    -4.667411
 H     7.703689     4.434335    -4.594169
 H     10.594037     1.558017    -4.477580
 O     9.868739     1.500238    -3.857558
 H     9.525108     2.411178    -3.719464
 H     3.185143    -2.279864     7.907366
 O     4.037099    -1.803430     7.872927
 H     3.799516    -0.864625     7.919151
 H    -2.718275    -2.237145    -8.652379
 O    -3.097346    -1.860512    -7.859220
 H    -2.365182    -1.414556    -7.380977
 H     5.261311     5.234558     1.178991
 O     5.088044     4.744890     2.000689
 H     4.113673     4.795983     2.097544
 H    -4.124739    -6.369473    -4.504572
 O    -3.300656    -5.891484    -4.621759
 H    -3.513093    -5.127234    -5.180702
 H    -6.259054     6.561408     4.821137
 O    -5.799277     7.357537     4.496333
 H    -5.691167     7.232524     3.527400
 H    -7.200679     4.613323     6.134303
 O    -6.943419     5.001842     5.288739
 H    -6.737814     4.244036     4.717544
 H    -6.882471     9.818786     2.241782
 O    -6.644161     10.168122     1.358627
 H    -7.082565     11.016640     1.286157
 H    -6.214153    -6.677660     2.093970
 O    -6.813018    -6.040445     1.674344
 H    -6.275117    -5.645237     0.955180
 H    -3.810926    -4.299729     7.883813
 O    -4.086163    -5.149938     7.496030
 H    -3.316854    -5.470289     7.010929
 H     9.523340     0.407052    -0.790603
 O     9.605770     1.352447    -1.013059
 H     9.894516     1.373000    -1.931430
 H    -8.072372    -3.804343     3.590621
 O    -7.157184    -4.103064     3.584228
 H    -7.069750    -4.775578     2.878583
 H     1.092191    -2.109831     6.963857
 O     1.568038    -2.856600     7.343274
 H     1.744745    -3.463124     6.607199
 H    -3.732221    -3.040791    -6.636249
 O    -4.154714    -3.628348    -5.992573
 H    -5.099379    -3.463872    -6.058888
 H    -8.325724     8.810217     3.723054
 O    -7.513736     9.315129     3.787847
 H    -6.850167     8.709490     4.180652
 H     7.780874    -2.643922    -5.259468
 O     6.865673    -2.359130    -5.274062
 H     6.388064    -2.960292    -4.671637
 H    -4.973710    -4.533227     6.076621
 O    -5.015712    -3.978780     5.272945
 H    -5.799890    -4.219225     4.758815
 N     7.660954     5.969583     5.190321
 H     7.607664     6.841996     5.707124
 H     6.814454     5.897846     4.628768
 H     8.441186     6.049918     4.546097
