604
grain_mol107 // -1788.467021832419 // -55.2152048941 // -820.897511196519 // -1022.78471553 // -0.0562410862 // -0.583901941368 // -0.015948488783
 H    -1.800131    -0.006013     2.405142
 O    -0.824435     0.035660     2.502572
 H    -0.546548    -0.835823     2.871647
 H    -0.296151    -1.998412    -2.821690
 O    -0.389395    -1.975844    -1.856747
 H    -1.341778    -1.885193    -1.686225
 H    -2.745658     1.812200     0.683557
 O    -2.627591     1.140229    -0.009446
 H    -1.834558     1.410993    -0.506536
 H    -3.659554     1.737432    -3.206686
 O    -3.132676     2.054725    -3.977132
 H    -2.237110     2.210893    -3.659759
 H    -0.054870    -0.679025    -0.808489
 O     0.051001     0.079799    -0.202734
 H    -0.391427    -0.174407     0.617764
 H     1.097291    -2.131841    -4.716847
 O     0.157834    -2.315594    -4.551439
 H     0.074661    -3.281045    -4.545988
 H    -4.902935     2.273148    -1.510962
 O    -4.520999     1.435336    -1.837588
 H    -3.856139     1.194807    -1.149063
 H    -3.598919     3.421202     2.240917
 O    -2.868477     2.800515     2.054376
 H    -2.113496     3.169201     2.549450
 H     2.643809     0.145620    -2.928953
 O     2.036181    -0.475177    -2.477418
 H     1.134527    -0.183674    -2.713713
 H    -1.035622     0.138260    -3.663056
 O    -0.239898     0.637854    -3.385512
 H    -0.508850     1.264717    -2.693734
 H     2.697340    -0.545706     0.615515
 O     2.624630    -1.320229     0.020198
 H     2.374753    -0.978628    -0.859520
 H    -2.802187    -0.540197    -0.661848
 O    -2.917021    -1.041349    -1.480284
 H    -3.717836    -1.590191    -1.396270
 H     2.856807     1.228676    -0.830176
 O     2.030411     1.737992    -0.755279
 H     1.317544     1.092065    -0.565143
 H     0.638966     3.028302    -3.393917
 O     1.553868     2.862718    -3.130932
 H     1.542821     2.441687    -2.252069
 H     0.201375    -4.028814    -0.403714
 O    -0.010595    -4.747621    -1.041293
 H    -0.798063    -5.190044    -0.649780
 H    -6.283793     2.186555     2.780270
 O    -6.380022     2.434609     3.738426
 H    -7.132531     1.888532     4.047506
 H     1.174533    -3.667724     1.456253
 O     0.768070    -3.052583     0.818745
 H     1.447437    -2.399751     0.553136
 H    -2.887861     5.131360    -1.318099
 O    -2.711933     4.359442    -0.748023
 H    -3.600212     3.993830    -0.555946
 H    -5.500795    -1.262403     1.592241
 O    -5.219849    -0.655037     0.875324
 H    -5.305111    -1.152854     0.056681
 H    -0.347833    -3.085395     3.139712
 O    -0.055184    -2.252320     3.546515
 H     0.892510    -2.153569     3.357514
 H     5.294466     1.005011    -1.131623
 O     4.509678     0.476589    -0.927618
 H     4.723885     0.105715    -0.042195
 H     0.721329     2.430515     0.927918
 O     0.699677     2.131072     1.845955
 H     0.092276     1.372594     1.917750
 H     4.533152    -0.582789    -2.242138
 O     4.755264    -1.105237    -3.046256
 H     5.243362    -0.481959    -3.623885
 H     3.075697     3.220900    -1.108283
 O     3.950793     3.630162    -1.087030
 H     4.453614     3.306190    -1.858572
 H    -5.793196    -1.651563    -1.985819
 O    -5.268302    -2.326079    -1.502533
 H    -5.162945    -3.071155    -2.119155
 H    -4.877015    -4.064974     1.287748
 O    -5.563540    -3.453068     0.962077
 H    -5.316067    -3.209130     0.059996
 H     2.805334     1.987534    -3.729763
 O     3.488089     1.303936    -3.890122
 H     3.579662     1.224167    -4.845192
 H    -5.211777     3.979939     3.423687
 O    -4.653152     4.546969     2.879307
 H    -4.145408     5.129837     3.511907
 H     0.764661     0.779738    -4.786223
 O     1.273883     0.629502    -5.609234
 H     1.881348    -0.110778    -5.402900
 H     1.068454     5.671115    -2.552663
 O     1.853983     5.371992    -2.063567
 H     2.424768     4.899172    -2.701001
 H    -2.692961    -3.600084    -1.723923
 O    -2.859563    -3.810640    -0.789474
 H    -3.619825    -4.407761    -0.749503
 H     2.172725     4.957698    -4.751150
 O     1.305939     5.020295    -5.188698
 H     1.313771     4.293019    -5.839587
 H     7.805280     1.845502    -0.857845
 O     7.029721     1.457419    -1.302937
 H     7.407377     0.749558    -1.863371
 H     4.507700     2.810322     0.279927
 O     4.826813     2.493007     1.149085
 H     4.735485     3.268983     1.740519
 H     1.166929    -3.282875    -2.049262
 O     2.032796    -3.141761    -2.459397
 H     2.113373    -2.167473    -2.532447
 H     1.195656     4.564831    -0.805773
 O     0.725738     4.122570    -0.063124
 H     0.036528     4.741206     0.239580
 H    -5.742755     0.979574     1.048702
 O    -6.238936     1.809452     1.197788
 H    -7.163158     1.554708     0.948290
 H    -2.227773    -2.671675     0.294260
 O    -1.768785    -2.069060     0.910357
 H    -0.857254    -2.403780     0.941402
 H    -3.732241    -0.217649     4.173631
 O    -3.747538    -0.310117     5.154256
 H    -4.498872    -0.889743     5.414516
 H    -6.074828    -2.810664     3.180969
 O    -5.640154    -1.943879     3.242211
 H    -4.685471    -2.161145     3.267501
 H    -2.760426    -0.584051    -3.072731
 O    -2.478050    -0.688755    -4.008762
 H    -2.311360    -1.657077    -4.039748
 H    -3.305103    -3.612978    -3.676674
 O    -2.453243    -3.213991    -3.432384
 H    -1.751000    -3.855078    -3.659077
 H     3.351823    -1.344018    -4.182136
 O     2.817263    -1.505117    -4.983116
 H     3.466330    -1.696919    -5.679126
 H     4.828805     2.067101    -6.651793
 O     4.305323     1.239786    -6.640579
 H     3.474696     1.449514    -7.075555
 H    -4.247850     1.123277     5.704983
 O    -4.764237     1.950407     5.893603
 H    -5.265044     2.064835     5.051732
 H    -3.956869    -0.076019     1.888462
 O    -3.437834     0.274922     2.632161
 H    -3.358849     1.243273     2.508185
 H    -5.722222     0.399160    -2.421995
 O    -6.249902    -0.290020    -2.876173
 H    -5.803544    -0.419249    -3.735367
 H     2.038957    -4.003910    -3.963014
 O     2.003784    -4.500159    -4.804226
 H     1.604286    -5.356821    -4.582147
 H     4.548406    -3.576122    -0.447959
 O     4.809812    -2.799085     0.093656
 H     4.041896    -2.181878     0.049157
 H    -0.216973     2.951915    -1.062994
 O    -0.951692     2.548232    -1.555095
 H    -1.674136     3.204373    -1.466760
 H     1.729676     4.443582     1.379221
 O     2.167484     4.617077     2.232391
 H     1.970164     3.850952     2.793707
 H     3.693368     1.248743     1.631487
 O     2.924756     0.669161     1.798250
 H     2.144582     1.250939     1.886390
 H     3.251493    -4.043718    -1.891297
 O     3.950837    -4.650541    -1.544551
 H     4.643726    -4.673361    -2.223002
 H     5.129501    -3.946888    -4.307558
 O     5.539252    -3.596661    -3.478968
 H     5.123629    -2.732619    -3.281579
 H    -1.125784     5.101325     1.851932
 O    -1.290975     5.619669     1.029381
 H    -1.911855     5.094668     0.462404
 H    -5.687269     3.116573     0.202095
 O    -5.227954     3.591623    -0.516219
 H    -5.680616     4.437954    -0.711649
 H     5.024371    -3.719643     3.135183
 O     4.281942    -3.571275     2.543522
 H     4.629797    -3.315808     1.659608
 H     5.856635    -1.213470     1.468910
 O     5.450700    -0.325904     1.414729
 H     6.228464     0.264114     1.454848
 H     1.757238    -6.815223    -2.784572
 O     1.596755    -7.071840    -3.718290
 H     2.480317    -7.154760    -4.106152
 H    -7.156046    -3.679431     0.743468
 O    -8.119732    -3.690948     0.523053
 H    -8.597905    -3.470463     1.351646
 H     3.228993    -2.313922     2.918660
 O     2.534152    -1.644820     3.065489
 H     2.760190    -0.857356     2.538111
 H    -1.923457     2.786398     4.925469
 O    -2.643415     3.446642     5.011691
 H    -3.375614     2.934296     5.407161
 H    -0.859746     1.017088     3.895251
 O    -0.757330     1.593963     4.685270
 H     0.071840     2.064927     4.549434
 H     0.412447     3.141908    -7.088618
 O     1.366028     2.957157    -6.940857
 H     1.379524     2.126543    -6.428409
 H     7.109247    -2.625539     4.913807
 O     6.367679    -3.101021     4.468776
 H     5.549759    -2.737479     4.884234
 H     7.985039     1.586480     1.453613
 O     7.903167     0.669429     1.777100
 H     8.407213     0.094268     1.171930
 H    -3.953401    -0.741443    -4.755490
 O    -4.874886    -0.803926    -5.107146
 H    -4.847490    -0.465370    -6.022986
 H     6.531654    -1.463866    -2.030697
 O     6.931016    -1.891925    -1.268493
 H     6.191472    -2.149054    -0.685784
 H     4.654159    -0.635185     4.514090
 O     5.069848     0.092841     4.022452
 H     5.037049    -0.110339     3.063595
 H    -0.067908     3.394029     2.712714
 O    -0.708486     4.058243     3.035304
 H    -0.423754     4.354965     3.921425
 H     8.298070    -1.187531    -0.552969
 O     9.073543    -0.787677    -0.100735
 H     9.779495    -1.447517    -0.137437
 H     9.631751    -3.644438     2.432649
 O     9.352228    -3.496194     1.503150
 H     10.127249    -3.346043     0.950905
 H    -2.420145    -2.492520     3.861848
 O    -3.028789    -2.613685     3.123276
 H    -2.559252    -2.314541     2.304018
 H    -2.008184     0.483359    -6.382209
 O    -2.642306     1.222749    -6.463741
 H    -2.914782     1.440692    -5.548070
 H    -1.121543     3.585790    -5.716476
 O    -1.223974     3.510924    -6.693843
 H    -1.804583     2.738951    -6.818125
 H    -4.489227    -6.345584    -1.033157
 O    -4.976258    -5.587848    -0.676010
 H    -5.734264    -5.444049    -1.282559
 H     2.791774    -5.837806    -1.257311
 O     1.990141    -6.391399    -1.165932
 H     1.218239    -5.765366    -1.093302
 H     3.470932    -4.460511    -5.447662
 O     4.436177    -4.454333    -5.695555
 H     4.555186    -3.740565    -6.327948
 H     7.443073     3.595815     2.015671
 O     7.381123     3.201849     1.136255
 H     6.454884     2.860586     1.079699
 H     6.694469    -3.791621     0.572847
 O     7.193814    -4.605764     0.393323
 H     8.072402    -4.420484     0.779806
 H    -7.372506    -4.611047    -2.471045
 O    -7.139313    -5.528781    -2.207364
 H    -7.771637    -5.778274    -1.506617
 H    -4.440689     6.900339     4.546811
 O    -3.562918     6.550405     4.299685
 H    -3.077406     6.322133     5.140987
 H     7.174302     3.796019     4.773381
 O     7.194468     3.359550     3.911607
 H     7.452917     2.435516     4.091044
 H    -5.947860     1.029479     6.749897
 O    -6.742643     0.528402     7.065654
 H    -6.474900    -0.407458     6.995342
 H    -0.334588    -4.994674    -2.758942
 O    -0.483853    -4.938490    -3.720341
 H    -1.065666    -5.665884    -3.976049
 H     6.658372     0.467033     4.402741
 O     7.627379     0.665865     4.370380
 H     7.859796     0.587090     3.418255
 H     4.981005    -6.745140    -3.557479
 O     4.302616    -6.956941    -4.234481
 H     4.435087    -6.315607    -4.940505
 H    -5.755813    -2.167422    -5.322495
 O    -6.362241    -2.941562    -5.414653
 H    -7.213389    -2.541170    -5.729919
 H    -7.759472     0.777364     5.793296
 O    -8.301924     1.086707     5.024060
 H    -8.933700     1.714163     5.378522
 H    -5.291472     5.759901     1.910406
 O    -5.534580     6.658982     1.609355
 H    -4.680647     7.140299     1.586559
 H     5.874865     1.487599    -3.998388
 O     6.130723     0.685389    -4.503975
 H     5.653473     0.739042    -5.334400
 H    -5.899318     6.390096    -0.043196
 O    -5.906258     6.124523    -0.986604
 H    -5.012724     6.356742    -1.317631
 H    -0.096755    -7.585815    -2.885130
 O    -0.808584    -7.691049    -2.243230
 H    -0.423543    -7.999733    -1.414605
 H    -2.586960    -1.416895     5.489540
 O    -1.931871    -2.130970     5.672853
 H    -1.106011    -1.648294     5.867983
 H     7.627702    -4.489352    -1.263300
 O     7.764265    -4.517944    -2.234627
 H     6.993786    -4.061065    -2.614195
 H    -8.698162    -3.167585    -3.375422
 O    -7.784615    -3.062748    -3.023402
 H    -7.226268    -2.900012    -3.798972
 H     8.947016    -3.340174    -2.644604
 O     9.575614    -2.618143    -2.856579
 H     9.065245    -1.790041    -2.804709
 H    -4.935239    -5.171419    -3.520053
 O    -4.911054    -4.203558    -3.430138
 H    -5.420693    -3.845812    -4.167602
 H    -3.590488     3.811061    -3.803782
 O    -3.315736     4.682026    -3.474048
 H    -3.597688     5.352282    -4.097711
 H    -0.182340     4.557455    -4.286368
 O    -0.836079     3.867537    -4.074345
 H    -1.630853     4.319701    -3.726049
 H    -1.978151    -3.901392     5.440302
 O    -2.256721    -4.778505     5.133596
 H    -3.185976    -4.653571     4.873059
 H    -2.382783     8.182744    -4.181834
 O    -2.575857     7.225426    -4.252053
 H    -2.356535     6.952772    -5.170167
 H    -3.087931     7.390771     2.825081
 O    -2.999006     7.547833     1.868071
 H    -2.386887     6.849068     1.560846
 H     4.742692     1.758492     4.166702
 O     4.581174     2.703435     3.955306
 H     5.456128     3.063969     3.717486
 H     7.804967    -1.441503     6.419475
 O     8.264617    -1.670964     5.588184
 H     8.222754    -0.844457     5.067559
 H     5.917702    -1.148216     7.887137
 O     6.624699    -0.635444     7.483052
 H     6.167159     0.093570     7.007352
 H    -1.637172     5.340942    -6.769606
 O    -1.785113     6.287269    -6.619261
 H    -0.916942     6.717480    -6.717436
 H    -8.234247    -0.136715     3.757076
 O    -8.030000    -0.703776     3.000647
 H    -7.123963    -1.036852     3.131970
 H    -8.490453     0.033258    -0.011780
 O    -8.541349     0.702155     0.691156
 H    -8.523910     0.191022     1.518043
 H     0.757555    -0.313824     5.896866
 O    -0.084929    -0.377186     6.404828
 H    -0.587380     0.379782     6.056072
 H    -0.471118     6.910570    -2.005870
 O    -0.407818     6.488105    -2.886178
 H    -1.256087     6.659015    -3.353841
 H     0.682097    -8.009652     0.890494
 O    -0.217027    -8.276174     0.644949
 H    -0.684157    -8.306950     1.507960
 H     1.916471     2.885720     5.117317
 O     1.947568     2.563026     4.191088
 H     2.892817     2.586604     3.955542
 H    -7.787437    -5.835017    -5.468475
 O    -6.885976    -5.698095    -5.803209
 H    -6.742747    -4.742721    -5.787161
 H     3.127691    -7.518218     1.397512
 O     2.238526    -7.163512     1.320272
 H     2.170472    -6.869474     0.375517
 H     3.440384     5.379885    -7.632733
 O     3.604668     4.415690    -7.709699
 H     2.775617     3.967472    -7.481207
 H    -0.564823     6.966443     0.161844
 O    -0.254911     7.648511    -0.457784
 H    -0.937369     8.334761    -0.447142
 H     4.328873     3.893582     5.100768
 O     4.223569     4.572024     5.810393
 H     5.097062     4.658876     6.201084
 H     7.514452     3.143968     6.779328
 O     6.980226     3.973029     6.656944
 H     7.450245     4.659092     7.129547
 H     4.178295    -8.023149    -0.651573
 O     4.680078    -7.457204    -0.042204
 H     5.127572    -6.832019    -0.635201
 H     6.852169    -6.010926    -2.342550
 O     6.088781    -6.615056    -2.282162
 H     6.433800    -7.518916    -2.168386
 H    -9.004088    -2.106728     2.878815
 O    -9.477354    -2.939466     2.670184
 H    -10.205308    -2.666828     2.085925
 H    -2.751321     8.728806     0.534815
 O    -2.596168     9.048711    -0.370106
 H    -3.393929     9.594372    -0.578649
 H     7.974860     1.024549     7.426809
 O     8.321707     1.699236     6.833009
 H     8.192899     1.332719     5.941107
 H    -3.002321     5.556534     7.078684
 O    -2.274690     5.614148     6.421661
 H    -2.346091     4.720363     5.969667
 H    -6.146652    -6.629596    -3.203096
 O    -5.463787    -6.847744    -3.863336
 H    -5.891542    -6.602708    -4.712204
 H     6.785671    -2.629336     2.884536
 O     6.923862    -2.409488     1.944240
 H     7.874992    -2.484109     1.778575
 H     2.306530     6.662368    -1.122731
 O     2.543617     7.430448    -0.556099
 H     1.690744     7.772392    -0.260594
 H    -4.044725    -7.528243    -2.677996
 O    -3.497289    -7.533170    -1.884392
 H    -2.580189    -7.659370    -2.187663
 H     0.949999     6.441463    -5.943813
 O     0.777663     7.292336    -6.410251
 H     0.774907     7.957093    -5.690712
 H    -8.205382    -1.806799    -1.784944
 O    -8.516842    -1.503412    -0.917960
 H    -8.289840    -2.264972    -0.338126
 H    -3.269145     6.960504    -2.598838
 O    -3.384534     6.821219    -1.649267
 H    -3.097451     7.646339    -1.204196
 H     2.839972    -4.456102     2.529542
 O     1.927879    -4.807527     2.533494
 H     2.000763    -5.714039     2.169988
 H    -8.699877    -1.078171    -5.190505
 O    -8.591229    -1.688650    -5.956678
 H    -8.297524    -1.118125    -6.688818
 H     7.636253    -0.168243    -3.805511
 O     8.267810    -0.167655    -3.067685
 H     8.938820     0.495573    -3.282799
 H     4.183606     6.681367    -0.339224
 O     4.901469     6.045722    -0.490937
 H     4.454203     5.194407    -0.694435
 H    -7.871801    -0.084188    -3.398782
 O    -8.761799    -0.093828    -3.808023
 H    -9.375897    -0.303754    -3.103082
 H     6.172325     3.687349    -3.373043
 O     5.698353     2.911819    -3.019939
 H     6.276441     2.523323    -2.321186
 H    -1.253357    -6.946158     0.338862
 O    -1.871646    -6.219052     0.120960
 H    -2.449421    -6.559803    -0.568767
 H    -3.886045    -7.807919     1.225922
 O    -4.132984    -7.514725     2.106122
 H    -3.927284    -6.549664     2.131836
 H    -2.820045    -5.087209     1.302519
 O    -3.544942    -4.946977     1.933255
 H    -3.278350    -4.201323     2.508459
 H     5.243348    -5.963257     5.136944
 O     4.497186    -5.751570     4.572795
 H     4.811905    -5.880037     3.662286
 H    -9.416213    -6.483021    -3.834188
 O    -9.418490    -6.062032    -4.724475
 H    -10.044354    -6.561821    -5.249018
 H     6.326732    -5.577182     1.528968
 O     5.807695    -6.145951     2.134285
 H     5.369436    -6.767553     1.541060
 H    -1.335814    -6.669231     2.801349
 O    -1.470393    -7.627383     2.895570
 H    -2.429364    -7.759851     2.876898
 H    -9.929016    -4.349710    -4.519661
 O    -10.070520    -3.414257    -4.296468
 H    -9.828110    -2.896452    -5.076191
 H     0.478174     7.779940    -3.634353
 O     0.799123     8.598660    -4.067103
 H     1.691695     8.763612    -3.698101
 H    -8.962750    -8.167637    -2.366657
 O    -9.557301    -7.417398    -2.412824
 H    -9.458430    -6.944677    -1.566649
 H     2.010005     0.844455     4.542555
 O     2.104114     0.014792     5.048703
 H     2.334546    -0.691653     4.409244
 H    -6.385464    -0.035570    -7.761756
 O    -7.347394     0.047490    -7.656016
 H    -7.514929     0.959928    -7.416966
 H     6.365480     3.590420    -7.371493
 O     5.761867     3.554815    -6.629467
 H     4.917730     3.992706    -6.958951
 H    -5.416210     10.225912     0.049497
 O    -4.909927     10.214240    -0.773698
 H    -5.478969     9.698293    -1.378059
 H    -0.659476    -1.411220    -5.751495
 O    -0.814477    -0.789791    -6.495697
 H    -0.035803    -0.201796    -6.454036
 H     4.905589    -0.738881    -6.863450
 O     4.992599    -1.660633    -6.597576
 H     5.830580    -1.731311    -6.107107
 H     2.675193    -8.958690    -2.218085
 O     3.631169    -8.878870    -2.198523
 H     3.868343    -8.324147    -2.956391
 H    -4.055270    -0.860543    -7.966128
 O    -4.577394    -0.097332    -7.675329
 H    -3.909534     0.563358    -7.381050
 H     1.198872     4.010709     6.491150
 O     1.949741     3.434377     6.733698
 H     2.758075     3.964305     6.607852
 H    -11.291137    -2.773366    -0.118562
 O    -10.890502    -2.109108     0.442555
 H    -10.151610    -1.734563    -0.068981
 H    -7.895587     2.052710     7.535519
 O    -8.425686     2.849620     7.344392
 H    -8.662430     3.213701     8.203798
 H     6.314459    -9.067126    -0.663812
 O     6.416704    -9.227853    -1.606909
 H     5.539815    -9.475983    -1.925480
 H     6.598850     5.223524    -0.933377
 O     7.248946     4.553092    -1.167849
 H     7.428389     4.059839    -0.341390
 H    -5.430581    -2.659547     5.829923
 O    -5.464680    -1.869381     6.413600
 H    -4.846958    -2.083791     7.134317
 H     2.474450     1.818908     7.414658
 O     2.951309     0.977318     7.375883
 H     2.649952     0.550271     6.546647
 H    -2.793067    -2.575740     7.090086
 O    -3.296982    -2.673542     7.926907
 H    -2.690429    -2.311137     8.589196
 H     5.651804     2.366914     6.644409
 O     5.377697     1.478623     6.409186
 H     4.485921     1.338326     6.791549
 H     1.963322    -4.171333     4.325630
 O     2.428853    -4.065741     5.167813
 H     3.134964    -4.734723     5.129464
 H     10.511611    -2.731799    -1.502356
 O     10.990626    -2.696097    -0.630230
 H     11.923808    -2.670228    -0.834676
 H     3.889454     8.148380    -3.213603
 O     3.197966     8.733377    -2.880186
 H     3.009076     8.422808    -1.975763
 H    -8.085728    -6.545766     0.492146
 O    -8.724524    -6.157301    -0.127392
 H    -8.683896    -5.195966     0.098715
 H    -0.727546     9.479848    -3.742849
 O    -1.671150     9.646252    -3.556985
 H    -1.756945     9.808267    -2.614956
 H     4.183983     3.846355    -3.891245
 O     3.625904     4.626544    -3.962701
 H     4.176350     5.415498    -3.776673
 H     5.175968     6.515523    -2.189463
 O     5.123406     6.679917    -3.151281
 H     5.916990     6.310254    -3.559178
 H    -0.528414     5.418618     5.823423
 O     0.200282     4.938210     5.411062
 H     0.888931     5.578660     5.110907
 H     3.071067     5.803048     4.924853
 O     2.313007     6.218700     4.487915
 H     2.280709     5.844447     3.593375
 H    -7.229430     8.869455    -0.746606
 O    -6.922163     8.605686    -1.623903
 H    -6.680643     7.665987    -1.546003
 H    -1.306127    -4.898887     3.760594
 O    -0.843230    -4.845028     2.893609
 H     0.075923    -5.095301     3.019532
 H     4.155042    -1.836423     6.389440
 O     4.175319    -2.036037     5.428795
 H     3.470292    -2.697106     5.273253
 H     7.127431    -5.968371     3.567700
 O     7.484866    -5.563090     4.367733
 H     7.000954    -4.722098     4.470740
 H     9.021570    -4.582234     4.282477
 O     9.650405    -3.853235     4.124118
 H     9.366337    -3.127484     4.693391
 H     3.168088     7.556347    -8.374043
 O     3.160947     7.055985    -7.559369
 H     2.279093     7.218983    -7.144437
 H    -0.714631    -0.966330     8.129582
 O    -0.932043    -1.573584     8.850863
 H    -0.213504    -2.211914     8.870814
 H     8.392627     4.431320    -2.333509
 O     9.083790     4.428334    -3.045175
 H     9.796831     4.966003    -2.700473
 H     6.466536     4.479068    -5.282280
 O     6.769385     4.916486    -4.464702
 H     7.715979     4.771913    -4.353436
 H     10.734673     2.038760    -4.094188
 O     9.988389     1.951212    -3.503222
 H     9.596945     2.846005    -3.387928
 H     3.041217    -2.047634     8.032355
 O     3.869179    -1.529097     8.026102
 H     3.582525    -0.603406     8.055064
 H    -2.207823    -2.429574    -8.742283
 O    -2.635028    -2.065572    -7.967911
 H    -1.944336    -1.580433    -7.466641
 H     5.048232     5.484674     1.361478
 O     4.833525     4.961446     2.143929
 H     3.862368     4.983138     2.225646
 H    -3.575138    -6.590190    -4.609573
 O    -2.771179    -6.073558    -4.699201
 H    -2.997899    -5.325466    -5.274192
 H    -6.698768     6.323731     4.534702
 O    -6.290858     7.137461     4.183909
 H    -6.127954     6.950890     3.227671
 H    -7.594675     4.174619     6.062509
 O    -7.082416     4.634418     5.374039
 H    -6.936947     3.948704     4.696406
 H    -7.366763     9.503630     1.856919
 O    -7.114289     9.854358     0.978602
 H    -7.585632     10.682561     0.882060
 H    -5.903663    -6.943319     1.906230
 O    -6.515322    -6.338632     1.457886
 H    -5.969492    -5.924799     0.755239
 H    -3.844893    -4.402962     7.760205
 O    -4.064364    -5.268211     7.370228
 H    -3.262164    -5.555972     6.919130
 H     9.577032     0.868664    -0.441115
 O     9.620886     1.815037    -0.669774
 H     9.945524     1.843107    -1.575903
 H    -7.954604    -4.151307     3.299832
 O    -7.026414    -4.404716     3.332348
 H    -6.878848    -5.078417     2.637765
 H     0.978761    -1.986851     7.008080
 O     1.477779    -2.704946     7.412491
 H     1.710200    -3.309199     6.690170
 H    -3.259706    -3.264639    -6.758490
 O    -3.678468    -3.866070    -6.125216
 H    -4.626582    -3.748302    -6.230228
 H    -8.819247     8.439507     3.286387
 O    -8.035820     8.982832     3.382786
 H    -7.360113     8.412115     3.805266
 H     8.158314    -2.299882    -4.943009
 O     7.231762    -2.059669    -4.994907
 H     6.760670    -2.678459    -4.405472
 H    -4.923750    -4.707460     5.911719
 O    -4.962399    -4.160881     5.102431
 H    -5.712040    -4.444869     4.559722
 N    -4.741303     5.015836     7.767993
 H    -5.400831     4.971256     6.991396
 H    -5.201360     5.511464     8.526206
 H    -4.611171     4.057441     8.080231
