604
grain_mol105 // -1503.046239024404 // -34.8828474228 // -515.142904507204 // -1022.78618194 // -0.0303723369 // -0.58398877959 // -0.007959880938
 H    -1.785231    -0.031446     2.482435
 O    -0.806840    -0.030032     2.559620
 H    -0.555754    -0.925089     2.889716
 H    -0.492729    -1.903099    -2.844588
 O    -0.561847    -1.909508    -1.877276
 H    -1.505345    -1.787107    -1.679832
 H    -2.698147     1.880614     0.846773
 O    -2.624576     1.229111     0.129561
 H    -1.833591     1.484057    -0.379496
 H    -3.709301     1.974818    -3.019621
 O    -3.189268     2.298090    -3.791986
 H    -2.279999     2.405753    -3.493867
 H    -0.149097    -0.663789    -0.796300
 O     0.000848     0.068712    -0.167644
 H    -0.430897    -0.197308     0.654530
 H     0.846676    -2.027231    -4.778583
 O    -0.095153    -2.179253    -4.594807
 H    -0.217097    -3.140231    -4.619586
 H    -4.888073     2.502170    -1.275014
 O    -4.548912     1.661439    -1.638841
 H    -3.878072     1.370343    -0.976518
 H    -3.449468     3.467009     2.478437
 O    -2.747252     2.823996     2.262015
 H    -1.962577     3.149436     2.739608
 H     2.528571     0.123553    -2.957198
 O     1.907021    -0.487331    -2.510128
 H     1.012957    -0.151879    -2.714238
 H    -1.165302     0.288605    -3.595948
 O    -0.343484     0.746151    -3.322450
 H    -0.569019     1.359466    -2.603789
 H     2.641421    -0.688433     0.559206
 O     2.520714    -1.439041    -0.058045
 H     2.265222    -1.058148    -0.920085
 H    -2.883815    -0.421284    -0.573206
 O    -3.039554    -0.887842    -1.405019
 H    -3.859472    -1.407451    -1.318761
 H     2.836736     1.127379    -0.830177
 O     2.031994     1.663344    -0.714211
 H     1.299544     1.038328    -0.531240
 H     0.632209     3.099075    -3.274247
 O     1.545327     2.887756    -3.040410
 H     1.539739     2.438416    -2.176010
 H    -0.019933    -4.032810    -0.508726
 O    -0.276722    -4.720546    -1.163725
 H    -1.071709    -5.144232    -0.766810
 H    -6.176250     2.331211     3.023762
 O    -6.222484     2.547033     3.992182
 H    -6.987023     2.046867     4.339824
 H     1.012637    -3.774526     1.336158
 O     0.615901    -3.121810     0.730742
 H     1.314824    -2.488457     0.468396
 H    -2.753775     5.267676    -1.041736
 O    -2.595142     4.474022    -0.496927
 H    -3.493043     4.136277    -0.296886
 H    -5.553925    -1.110242     1.725030
 O    -5.265339    -0.491136     1.020913
 H    -5.391447    -0.957381     0.188993
 H    -0.443277    -3.188809     3.077357
 O    -0.106262    -2.382340     3.503321
 H     0.839632    -2.315955     3.292405
 H     5.253406     0.816598    -1.202461
 O     4.454030     0.311196    -0.995239
 H     4.675724    -0.096284    -0.128438
 H     0.796378     2.347781     1.019459
 O     0.779479     2.024259     1.929792
 H     0.147707     1.284617     1.991791
 H     4.402994    -0.702129    -2.344430
 O     4.583201    -1.205843    -3.170710
 H     5.082153    -0.582633    -3.739753
 H     3.128993     3.115871    -1.049252
 O     4.020010     3.486522    -1.026590
 H     4.491644     3.178319    -1.823209
 H    -5.949459    -1.365753    -1.855913
 O    -5.440511    -2.076495    -1.408885
 H    -5.381043    -2.803983    -2.052132
 H    -5.052524    -3.923528     1.311793
 O    -5.721129    -3.274001     1.023993
 H    -5.486074    -3.010018     0.124271
 H     2.747327     1.984905    -3.700261
 O     3.392592     1.276322    -3.901361
 H     3.461329     1.229689    -4.860478
 H    -5.028311     4.026085     3.716808
 O    -4.440450     4.589566     3.202477
 H    -3.893664     5.111793     3.827141
 H     0.632415     0.895836    -4.743435
 O     1.112813     0.751991    -5.584531
 H     1.696183    -0.017108    -5.417801
 H     1.203646     5.695149    -2.346400
 O     1.985758     5.350196    -1.884411
 H     2.518187     4.875829    -2.552843
 H    -2.925724    -3.444312    -1.738549
 O    -3.077986    -3.679152    -0.807395
 H    -3.860570    -4.246757    -0.767461
 H     2.209862     5.011170    -4.603810
 O     1.335666     5.122938    -5.018298
 H     1.299688     4.418744    -5.692797
 H     7.802056     1.547654    -0.965870
 O     7.001966     1.199488    -1.399930
 H     7.338415     0.500208    -1.995354
 H     4.577683     2.608771     0.285369
 O     4.902904     2.243192     1.134977
 H     4.866777     2.994052     1.754761
 H     0.934658    -3.270394    -2.153330
 O     1.795286    -3.150339    -2.580634
 H     1.914058    -2.178037    -2.623976
 H     1.320872     4.524028    -0.655585
 O     0.844905     4.074193     0.082409
 H     0.190888     4.710429     0.421251
 H    -5.718616     1.153564     1.256205
 O    -6.176704     1.998610     1.438704
 H    -7.117678     1.788662     1.208701
 H    -2.373679    -2.603836     0.296556
 O    -1.875151    -2.041223     0.919858
 H    -0.977802    -2.413720     0.916067
 H    -3.681982    -0.233928     4.289124
 O    -3.673849    -0.355059     5.266133
 H    -4.443926    -0.907419     5.532044
 H    -6.151835    -2.686881     3.275674
 O    -5.679901    -1.841032     3.352266
 H    -4.734936    -2.098037     3.347648
 H    -2.903130    -0.383953    -2.985190
 O    -2.648654    -0.467877    -3.931136
 H    -2.521935    -1.440405    -3.998483
 H    -3.585588    -3.366311    -3.674313
 O    -2.712530    -3.010214    -3.438813
 H    -2.042665    -3.670610    -3.704888
 H     3.144219    -1.348502    -4.277027
 O     2.583525    -1.462346    -5.068308
 H     3.207156    -1.654859    -5.787083
 H     4.698421     2.081081    -6.669629
 O     4.141231     1.275532    -6.673087
 H     3.309659     1.534657    -7.078537
 H    -4.136378     1.100109     5.789644
 O    -4.589379     1.944496     6.044709
 H    -5.151689     2.176268     5.277986
 H    -3.956810     0.000184     2.017605
 O    -3.404774     0.304302     2.758344
 H    -3.291581     1.271815     2.665853
 H    -5.805552     0.694152    -2.226186
 O    -6.371732     0.042470    -2.688973
 H    -5.952181    -0.075299    -3.563249
 H     1.729447    -3.960358    -4.111801
 O     1.652860    -4.426157    -4.967541
 H     1.224568    -5.273224    -4.763368
 H     4.339402    -3.753195    -0.650676
 O     4.644990    -3.006650    -0.089602
 H     3.902861    -2.357332    -0.095001
 H    -0.167854     2.977238    -0.928708
 O    -0.932204     2.619227    -1.411080
 H    -1.623601     3.301362    -1.284959
 H     1.884062     4.287534     1.505617
 O     2.324413     4.381356     2.374954
 H     2.066781     3.577776     2.863734
 H     3.734361     1.030752     1.604953
 O     2.947689     0.476689     1.777624
 H     2.193831     1.084416     1.901775
 H     2.989698    -4.119121    -2.074550
 O     3.671708    -4.765161    -1.766216
 H     4.346523    -4.791780    -2.462694
 H     4.810265    -4.015223    -4.533816
 O     5.253376    -3.710738    -3.704448
 H     4.879608    -2.836971    -3.468837
 H    -0.917519     5.060323     2.078048
 O    -1.085047     5.616447     1.281846
 H    -1.736662     5.134242     0.709228
 H    -5.595913     3.315781     0.481924
 O    -5.131907     3.799432    -0.227896
 H    -5.558037     4.666754    -0.386275
 H     4.897137    -4.037438     2.911905
 O     4.146650    -3.838668     2.345776
 H     4.482655    -3.567951     1.461523
 H     5.790436    -1.510852     1.308623
 O     5.419080    -0.606737     1.296333
 H     6.220963    -0.049316     1.333031
 H     1.362082    -6.796824    -3.019507
 O     1.168239    -7.015379    -3.956532
 H     2.037894    -7.119772    -4.369902
 H    -7.326805    -3.428702     0.839961
 O    -8.295174    -3.394111     0.644211
 H    -8.743537    -3.182471     1.491768
 H     3.155740    -2.554074     2.788990
 O     2.493227    -1.862408     2.976444
 H     2.738361    -1.068014     2.468453
 H    -1.816611     2.730869     5.085003
 O    -2.510885     3.399109     5.235193
 H    -3.265919     2.920755     5.627961
 H    -0.776619     0.910102     3.984467
 O    -0.633475     1.465552     4.783935
 H     0.220707     1.887753     4.642985
 H     0.319946     3.346738    -6.956589
 O     1.268153     3.118580    -6.840191
 H     1.260774     2.271557    -6.355399
 H     7.068106    -3.088620     4.671264
 O     6.296881    -3.519012     4.230909
 H     5.505008    -3.137159     4.678555
 H     8.026765     1.200413     1.332916
 O     7.918663     0.275502     1.627973
 H     8.383724    -0.296088     0.989372
 H    -4.142371    -0.436370    -4.640872
 O    -5.074067    -0.449716    -4.970326
 H    -5.055162    -0.081798    -5.875033
 H     6.368691    -1.667846    -2.213049
 O     6.767883    -2.140531    -1.477509
 H     6.033085    -2.385344    -0.883989
 H     4.687385    -0.991316     4.399849
 O     5.120220    -0.263661     3.922967
 H     5.056608    -0.431002     2.958275
 H     0.084177     3.283303     2.852336
 O    -0.518426     3.961293     3.219381
 H    -0.192839     4.214820     4.103478
 H     8.179810    -1.514461    -0.774373
 O     8.981534    -1.163145    -0.327848
 H     9.659145    -1.848346    -0.406519
 H     9.485445    -4.122816     2.093047
 O     9.189115    -3.932762     1.176661
 H     9.955530    -3.794091     0.609501
 H    -2.470898    -2.539406     3.871688
 O    -3.101670    -2.610734     3.145406
 H    -2.640687    -2.302877     2.324593
 H    -2.188877     0.764392    -6.276169
 O    -2.794662     1.530539    -6.316757
 H    -3.035103     1.728219    -5.387755
 H    -1.160186     3.804634    -5.531518
 O    -1.291209     3.767981    -6.507637
 H    -1.904587     3.023732    -6.642328
 H    -4.815209    -6.137640    -1.092442
 O    -5.261801    -5.373490    -0.698050
 H    -6.028169    -5.179100    -1.279486
 H     2.472805    -5.913925    -1.488507
 O     1.651719    -6.437885    -1.394145
 H     0.908106    -5.784297    -1.281285
 H     3.104612    -4.422951    -5.647403
 O     4.062739    -4.447591    -5.919946
 H     4.195762    -3.717490    -6.530591
 H     7.581882     3.209083     1.974881
 O     7.486960     2.840835     1.088016
 H     6.544619     2.548984     1.035917
 H     6.499449    -4.089102     0.306016
 O     6.960175    -4.916498     0.087982
 H     7.855063    -4.779303     0.456710
 H    -7.659654    -4.241510    -2.397054
 O    -7.457781    -5.176246    -2.169817
 H    -8.082323    -5.423752    -1.461375
 H    -4.155980     6.907516     4.895738
 O    -3.280153     6.545516     4.661513
 H    -2.800484     6.327899     5.475135
 H     7.389751     3.324058     4.744755
 O     7.372997     2.920676     3.867451
 H     7.597019     1.980946     4.005702
 H    -5.739175     1.082243     6.957941
 O    -6.523247     0.566533     7.257408
 H    -6.277438    -0.364535     7.127171
 H    -0.652400    -4.896014    -2.879776
 O    -0.823138    -4.801250    -3.834508
 H    -1.440036    -5.495859    -4.098901
 H     6.732090     0.034624     4.273809
 O     7.707108     0.195725     4.223947
 H     7.912573     0.141302     3.263309
 H     4.565837    -6.829415    -3.873079
 O     3.863011    -6.991011    -4.538936
 H     4.004099    -6.331603    -5.226449
 H    -6.014875    -1.768917    -5.207661
 O    -6.654509    -2.514611    -5.309509
 H    -7.496073    -2.070054    -5.589283
 H    -7.616939     0.886298     6.049310
 O    -8.172581     1.230463     5.304908
 H    -8.763283     1.878313     5.692573
 H    -5.051738     5.883473     2.267609
 O    -5.262039     6.800879     1.998403
 H    -4.391198     7.248509     1.970725
 H     5.786465     1.372206    -4.063673
 O     5.993971     0.576252    -4.602003
 H     5.500368     0.679461    -5.417992
 H    -5.681501     6.602165     0.349428
 O    -5.721102     6.370608    -0.601860
 H    -4.826884     6.577100    -0.947115
 H    -0.523823    -7.488747    -3.097417
 O    -1.223438    -7.587341    -2.441161
 H    -0.831042    -7.939030    -1.633400
 H    -2.554508    -1.515049     5.537207
 O    -1.923166    -2.259738     5.680775
 H    -1.074561    -1.816793     5.869461
 H     7.358016    -4.760617    -1.575384
 O     7.468889    -4.762571    -2.550283
 H     6.709268    -4.261423    -2.894371
 H    -8.947003    -2.716287    -3.218891
 O    -8.021515    -2.660116    -2.887541
 H    -7.476268    -2.493584    -3.671585
 H     8.688756    -3.618480    -2.951594
 O     9.341223    -2.915747    -3.155400
 H     8.866600    -2.069690    -3.064292
 H    -5.273794    -4.862781    -3.526763
 O    -5.207934    -3.900263    -3.405725
 H    -5.720383    -3.497654    -4.117674
 H    -3.569372     4.062950    -3.548619
 O    -3.254442     4.911372    -3.196390
 H    -3.522184     5.611713    -3.792707
 H    -0.145736     4.687423    -4.095122
 O    -0.823732     4.018681    -3.889189
 H    -1.589209     4.491383    -3.505592
 H    -2.048682    -4.017273     5.390812
 O    -2.369911    -4.871644     5.062521
 H    -3.299633    -4.701079     4.830727
 H    -2.195233     8.393008    -3.816042
 O    -2.430211     7.447498    -3.911670
 H    -2.243445     7.196518    -4.843504
 H    -2.760590     7.389464     3.185307
 O    -2.685285     7.577043     2.234681
 H    -2.113806     6.863713     1.883427
 H     4.867164     1.401012     4.134423
 O     4.732687     2.359133     3.971338
 H     5.606965     2.702054     3.705237
 H     7.848605    -1.985221     6.196537
 O     8.277916    -2.204282     5.346605
 H     8.256655    -1.359699     4.854245
 H     6.011081    -1.667980     7.721366
 O     6.728544    -1.169691     7.317670
 H     6.289926    -0.408044     6.876869
 H    -1.629834     5.614239    -6.511782
 O    -1.735321     6.560146    -6.326565
 H    -0.852449     6.957919    -6.432676
 H    -8.185237     0.050843     3.996320
 O    -8.022558    -0.497274     3.215826
 H    -7.128409    -0.871052     3.313631
 H    -8.526725     0.356113     0.242399
 O    -8.532460     1.003230     0.967226
 H    -8.516022     0.465516     1.777288
 H     0.841017    -0.557200     5.893617
 O     0.009758    -0.600438     6.422002
 H    -0.472321     0.184193     6.108405
 H    -0.290524     6.969550    -1.736780
 O    -0.262047     6.575571    -2.630021
 H    -1.112242     6.796901    -3.071897
 H     0.329420    -8.071476     0.640758
 O    -0.585623    -8.293400     0.410095
 H    -1.032265    -8.334695     1.283423
 H     2.113033     2.611580     5.191014
 O     2.107345     2.319967     4.255164
 H     3.048339     2.313857     3.996382
 H    -8.197668    -5.345265    -5.421450
 O    -7.299903    -5.233244    -5.774852
 H    -7.117335    -4.285476    -5.731022
 H     2.804752    -7.695714     1.099960
 O     1.929184    -7.303243     1.057792
 H     1.849998    -6.974808     0.125217
 H     3.422900     5.478354    -7.504534
 O     3.544353     4.511805    -7.619995
 H     2.704240     4.090006    -7.382426
 H    -0.331370     6.956850     0.440763
 O    -0.022504     7.650047    -0.167875
 H    -0.674935     8.362743    -0.112496
 H     4.561534     3.527735     5.142488
 O     4.498010     4.191307     5.873337
 H     5.381746     4.224261     6.249566
 H     7.751712     2.592936     6.715752
 O     7.248148     3.446954     6.638473
 H     7.762463     4.096278     7.116602
 H     3.783247    -8.172371    -0.991152
 O     4.322502    -7.648123    -0.376513
 H     4.780484    -7.021472    -0.959965
 H     6.494403    -6.212137    -2.683544
 O     5.708895    -6.787444    -2.623121
 H     6.019857    -7.707490    -2.548535
 H    -9.055694    -1.856313     3.073949
 O    -9.566796    -2.662112     2.849021
 H    -10.298015    -2.340557     2.294566
 H    -2.429259     8.793312     0.928566
 O    -2.279688     9.139131     0.032898
 H    -3.060803     9.721145    -0.140962
 H     8.144272     0.437347     7.278841
 O     8.501879     1.118850     6.699345
 H     8.337548     0.787689     5.799151
 H    -2.178014     5.221104     7.617674
 O    -1.892238     5.419204     6.726914
 H    -2.117276     4.613836     6.170640
 H    -6.535656    -6.281216    -3.226720
 O    -5.878709    -6.504019    -3.911265
 H    -6.316777    -6.213364    -4.740245
 H     6.695254    -3.010674     2.651850
 O     6.818602    -2.765206     1.716065
 H     7.761649    -2.870750     1.523049
 H     2.636244     6.661980    -0.848877
 O     2.668000     7.503668    -0.348510
 H     1.721411     7.712485    -0.235197
 H    -4.459880    -7.280517    -2.786216
 O    -3.893774    -7.334398    -2.007663
 H    -2.990308    -7.486667    -2.338648
 H     1.020992     6.581331    -5.717135
 O     0.869251     7.453817    -6.150429
 H     0.913366     8.093397    -5.409862
 H    -8.360151    -1.431530    -1.597791
 O    -8.637360    -1.145165    -0.713567
 H    -8.427999    -1.934436    -0.164910
 H    -3.091504     7.153452    -2.251427
 O    -3.188264     6.988005    -1.303683
 H    -2.858526     7.786007    -0.841090
 H     2.670380    -4.664793     2.339302
 O     1.745039    -4.979413     2.355946
 H     1.771753    -5.875151     1.960628
 H    -8.907980    -0.568049    -4.963577
 O    -8.843163    -1.155938    -5.752057
 H    -8.544421    -0.573052    -6.472327
 H     7.480254    -0.356653    -3.972561
 O     8.130831    -0.410577    -3.253438
 H     8.821526     0.234715    -3.461642
 H     5.013555     6.218031     0.333800
 O     5.278143     5.790658    -0.501964
 H     4.704258     4.997178    -0.577566
 H    -7.996375     0.330488    -3.162154
 O    -8.895750     0.370506    -3.548315
 H    -9.500440     0.161473    -2.835014
 H     6.184464     3.537154    -3.372686
 O     5.690762     2.764916    -3.038944
 H     6.267946     2.337216    -2.363638
 H    -1.573917    -6.913374     0.174724
 O    -2.167163    -6.155108    -0.002872
 H    -2.775157    -6.448815    -0.688261
 H    -4.217200    -7.698604     1.100897
 O    -4.429825    -7.426094     1.996568
 H    -4.184707    -6.471362     2.048733
 H    -3.039177    -5.027081     1.239413
 O    -3.742050    -4.879588     1.893007
 H    -3.431406    -4.165246     2.485496
 H     5.073459    -6.354748     4.832462
 O     4.322684    -6.094230     4.295512
 H     4.609294    -6.204160     3.373292
 H    -9.810958    -5.982764    -3.767606
 O    -9.817854    -5.532171    -4.643270
 H    -10.476432    -5.988376    -5.167470
 H     6.082632    -5.889740     1.212727
 O     5.555737    -6.457625     1.812285
 H     5.078202    -7.040613     1.210219
 H    -1.584749    -6.717076     2.646375
 O    -1.755831    -7.671673     2.712727
 H    -2.719611    -7.765052     2.714195
 H    -10.252842    -3.808715    -4.369118
 O    -10.350546    -2.876443    -4.111770
 H    -10.106338    -2.342625    -4.880044
 H     0.663369     7.856455    -3.356124
 O     1.002269     8.679767    -3.764783
 H     1.915003     8.792267    -3.422325
 H    -9.390861    -7.732889    -2.368429
 O    -9.955297    -6.958388    -2.374601
 H    -9.816456    -6.518813    -1.516243
 H     2.108593     0.590807     4.545882
 O     2.179030    -0.257650     5.023356
 H     2.365774    -0.951061     4.355295
 H    -6.616545     0.467911    -7.558220
 O    -7.571442     0.585756    -7.425073
 H    -7.695632     1.495473    -7.151681
 H     6.277249     3.565105    -7.380407
 O     5.690090     3.525307    -6.625660
 H     4.858177     4.010641    -6.915986
 H    -5.038272     10.411515     0.559868
 O    -4.551354     10.406558    -0.275105
 H    -5.156256     9.935708    -0.881939
 H    -0.903979    -1.202790    -5.743238
 O    -1.052014    -0.550691    -6.462145
 H    -0.248840     0.003817    -6.421164
 H     4.654598    -0.715694    -6.975579
 O     4.710260    -1.649043    -6.743570
 H     5.556297    -1.769721    -6.277259
 H     2.205137    -8.993147    -2.548328
 O     3.163777    -8.952621    -2.550785
 H     3.404921    -8.382172    -3.295652
 H    -4.327680    -0.442027    -7.849860
 O    -4.811005     0.331101    -7.520659
 H    -4.109568     0.954120    -7.222169
 H     1.480175     3.725979     6.615164
 O     2.208349     3.111437     6.827631
 H     3.037853     3.605845     6.691092
 H    -11.441023    -2.329588     0.115043
 O    -11.000105    -1.701415     0.687375
 H    -10.259384    -1.339143     0.169824
 H    -7.323272     2.281042     7.621381
 O    -7.769573     3.135307     7.531148
 H    -7.872343     3.485943     8.415301
 H     5.873828    -9.299909    -1.092959
 O     5.946357    -9.433155    -2.043054
 H     5.052424    -9.634376    -2.346974
 H     6.737970     4.949135    -0.922132
 O     7.373498     4.263281    -1.182366
 H     7.538753     3.744989    -0.372188
 H    -5.436577    -2.651449     5.910426
 O    -5.422616    -1.880399     6.519646
 H    -4.798924    -2.144547     7.218062
 H     2.680603     1.448662     7.436710
 O     3.121073     0.590846     7.358028
 H     2.783923     0.203942     6.522529
 H    -2.767572    -2.716920     7.104106
 O    -3.253266    -2.823813     7.950407
 H    -2.617458    -2.507190     8.608404
 H     5.859362     1.895746     6.601721
 O     5.543357     1.026958     6.347472
 H     4.656040     0.910033     6.746531
 H     1.850318    -4.406636     4.166105
 O     2.340160    -4.348266     4.999144
 H     3.017218    -5.043342     4.920285
 H     10.304305    -3.112879    -1.830967
 O     10.805986    -3.127705    -0.970888
 H     11.734056    -3.129628    -1.198926
 H     4.106564     8.078908    -3.064838
 O     3.470852     8.733488    -2.729936
 H     3.251156     8.391192    -1.837945
 H    -8.378548    -6.245272     0.518331
 O    -9.015783    -5.810716    -0.071479
 H    -8.930530    -4.860027     0.185315
 H    -0.477304     9.606528    -3.377124
 O    -1.408381     9.805479    -3.160192
 H    -1.463315     9.939025    -2.211579
 H     4.194644     3.794465    -3.832217
 O     3.665483     4.596723    -3.868284
 H     4.252153     5.357395    -3.664870
 H     5.316627     6.365249    -2.086938
 O     5.253214     6.565139    -3.044547
 H     6.027534     6.176508    -3.470954
 H    -0.204839     5.235359     6.027487
 O     0.503417     4.738309     5.592746
 H     1.202559     5.358597     5.284538
 H     3.395625     5.502471     5.034801
 O     2.650240     5.998306     4.647661
 H     2.531477     5.586035     3.769976
 H    -6.924957     9.155660    -0.233526
 O    -6.646277     8.912009    -1.125992
 H    -6.444559     7.960442    -1.087668
 H    -1.459309    -4.982893     3.662387
 O    -1.015540    -4.917267     2.786219
 H    -0.104889    -5.209302     2.879763
 H     4.185414    -2.233699     6.248351
 O     4.173142    -2.400166     5.281549
 H     3.438832    -3.027721     5.122260
 H     6.916639    -6.381870     3.215663
 O     7.309288    -6.019076     4.019611
 H     6.863300    -5.163087     4.162267
 H     8.882519    -5.097801     3.926675
 O     9.536836    -4.389809     3.776711
 H     9.296407    -3.672675     4.376135
 H     3.220087     7.688736    -8.167574
 O     3.212656     7.161286    -7.370278
 H     2.349789     7.345439    -6.926129
 H    -0.600157    -1.228672     8.140292
 O    -0.822397    -1.847689     8.849815
 H    -0.133290    -2.517686     8.827911
 H     8.459159     4.152011    -2.369755
 O     9.134433     4.144113    -3.102248
 H     9.874791     4.643301    -2.757674
 H     6.468146     4.375931    -5.264327
 O     6.807353     4.775665    -4.442689
 H     7.749117     4.588375    -4.355717
 H     10.657853     1.732793    -4.268562
 O     9.924159     1.653470    -3.660925
 H     9.572188     2.559617    -3.504243
 H     3.104543    -2.455792     7.911432
 O     3.952551    -1.970707     7.901969
 H     3.704807    -1.035966     7.968173
 H    -2.565426    -2.056233    -8.724758
 O    -2.958375    -1.702030    -7.928020
 H    -2.236274    -1.262119    -7.429094
 H     5.203886     5.506911     2.272382
 O     5.009530     4.581938     2.491139
 H     4.029103     4.550476     2.444013
 H    -4.000070    -6.296867    -4.697379
 O    -3.178058    -5.810187    -4.790722
 H    -3.387900    -5.034494    -5.334718
 H    -6.360664     6.391877     4.903485
 O    -5.900897     7.198130     4.604471
 H    -5.780223     7.097715     3.634085
 H    -7.307127     4.406395     6.155515
 O    -7.039185     4.816919     5.323763
 H    -6.821748     4.074357     4.737088
 H    -6.972038     9.705879     2.393161
 O    -6.722790     10.078171     1.522570
 H    -7.168223     10.924030     1.462703
 H    -6.180427    -6.777637     1.861659
 O    -6.777692    -6.134350     1.449130
 H    -6.232747    -5.718861     0.746818
 H    -3.876984    -4.522284     7.740426
 O    -4.140411    -5.364703     7.328446
 H    -3.362097    -5.668163     6.846868
 H     9.543948     0.483007    -0.628732
 O     9.623557     1.434060    -0.824536
 H     9.923188     1.482491    -1.738442
 H    -8.080579    -3.954138     3.399687
 O    -7.163100    -4.245854     3.399219
 H    -7.060788    -4.900840     2.679145
 H     1.021745    -2.277276     6.943021
 O     1.501157    -3.027460     7.310939
 H     1.690711    -3.616235     6.563581
 H    -3.601588    -2.915578    -6.743059
 O    -4.029000    -3.520970    -6.119367
 H    -4.973781    -3.361797    -6.195883
 H    -8.428811     8.651755     3.829445
 O    -7.621262     9.160233     3.917666
 H    -6.959216     8.550283     4.305860
 H     7.887372    -2.469180    -5.192508
 O     6.969651    -2.193160    -5.214618
 H     6.489107    -2.810863    -4.632020
 H    -5.012541    -4.720427     5.911464
 O    -5.047137    -4.146701     5.121115
 H    -5.821939    -4.380388     4.589823
 N     4.635273     7.454118     1.879695
 H     4.256629     7.434739     2.824088
 H     3.846632     7.640332     1.254707
 H     5.253374     8.258232     1.822875
