604
grain_mol76 // -1788.467068678946 // -55.2152579911 // -820.897552530046 // -1022.78477414 // -0.0562411799 // -0.583911536503 // -0.015949725257
 H    -1.800612    -0.007099     2.405200
 O    -0.824743     0.033469     2.501772
 H    -0.547147    -0.838455     2.870313
 H    -0.295554    -1.996595    -2.822803
 O    -0.388972    -1.974818    -1.857861
 H    -1.341372    -1.883994    -1.687452
 H    -2.746036     1.811653     0.682843
 O    -2.627081     1.139497    -0.009841
 H    -1.834292     1.411343    -0.506751
 H    -3.659027     1.739334    -3.205896
 O    -3.132088     2.056920    -3.976171
 H    -2.236644     2.213348    -3.658597
 H    -0.054392    -0.678572    -0.809023
 O     0.051616     0.079796    -0.202713
 H    -0.391544    -0.174705     0.617287
 H     1.098070    -2.128833    -4.717900
 O     0.158613    -2.312767    -4.552703
 H     0.075524    -3.278228    -4.547872
 H    -4.902797     2.273849    -1.510124
 O    -4.520576     1.436328    -1.837080
 H    -3.855599     1.195699    -1.148643
 H    -3.600341     3.419631     2.240051
 O    -2.868939     2.801104     2.050159
 H    -2.115372     3.167409     2.548875
 H     2.644398     0.147526    -2.928470
 O     2.036726    -0.473580    -2.477429
 H     1.135101    -0.181855    -2.713544
 H    -1.035042     0.140658    -3.662979
 O    -0.239280     0.639938    -3.384999
 H    -0.508259     1.266618    -2.693076
 H     2.697565    -0.545875     0.615546
 O     2.624885    -1.320052     0.019769
 H     2.375072    -0.977921    -0.859758
 H    -2.801955    -0.539086    -0.663068
 O    -2.916465    -1.040829    -1.481209
 H    -3.717495    -1.589349    -1.397279
 H     2.857185     1.229392    -0.829185
 O     2.030825     1.738742    -0.754075
 H     1.317906     1.092780    -0.564326
 H     0.639520     3.030577    -3.392048
 O     1.554392     2.864678    -3.129160
 H     1.543296     2.443329    -2.250450
 H     0.201690    -4.028343    -0.406030
 O    -0.010219    -4.746886    -1.043915
 H    -0.797785    -5.189408    -0.652727
 H    -6.284079     2.184684     2.784209
 O    -6.380676     2.431909     3.742548
 H    -7.133379     1.885508     4.050706
 H     1.174793    -3.668309     1.454196
 O     0.768234    -3.052761     0.817149
 H     1.447556    -2.399725     0.551898
 H    -2.887875     5.132305    -1.315499
 O    -2.711905     4.359821    -0.746183
 H    -3.600080     3.993977    -0.554166
 H    -5.500540    -1.263079     1.591112
 O    -5.219342    -0.654850     0.875082
 H    -5.304751    -1.151696     0.055854
 H    -0.347759    -3.087125     3.137768
 O    -0.055450    -2.254249     3.545236
 H     0.892291    -2.155127     3.356590
 H     5.294760     1.006031    -1.130328
 O     4.510015     0.477368    -0.926789
 H     4.724105     0.106012    -0.041539
 H     0.721638     2.431155     0.929701
 O     0.699989     2.129757     1.847115
 H     0.092168     1.371560     1.917288
 H     4.533652    -0.581183    -2.241936
 O     4.755910    -1.103192    -3.046300
 H     5.243995    -0.479557    -3.623548
 H     3.075907     3.222047    -1.105813
 O     3.951097     3.631098    -1.084325
 H     4.453819     3.307509    -1.856083
 H    -5.792729    -1.650211    -1.987159
 O    -5.268068    -2.325080    -1.504119
 H    -5.162519    -3.069736    -2.121212
 H    -4.876910    -4.065478     1.284928
 O    -5.563382    -3.453166     0.959888
 H    -5.316041    -3.208561     0.057939
 H     2.805953     1.989810    -3.728202
 O     3.488760     1.306356    -3.888919
 H     3.580463     1.227234    -4.844032
 H    -5.212818     3.976795     3.425799
 O    -4.654729     4.543551     2.880589
 H    -4.147039     5.127641     3.512314
 H     0.765417     0.782696    -4.785566
 O     1.274666     0.632893    -5.608639
 H     1.882159    -0.107464    -5.402671
 H     1.068855     5.672923    -2.548952
 O     1.854330     5.373396    -2.060024
 H     2.425118     4.901053    -2.697810
 H    -2.692443    -3.598869    -1.726133
 O    -2.859152    -3.810217    -0.791879
 H    -3.619594    -4.407143    -0.752466
 H     2.173455     4.960646    -4.747987
 O     1.306733     5.023453    -5.185633
 H     1.314684     4.296527    -5.836913
 H     7.805388     1.846614    -0.855423
 O     7.030005     1.458677    -1.300927
 H     7.407887     0.751234    -1.861731
 H     4.507750     2.810459     0.282174
 O     4.826798     2.492643     1.151176
 H     4.735302     3.268232     1.743078
 H     1.167380    -3.281349    -2.051078
 O     2.033345    -3.140111    -2.460964
 H     2.114015    -2.165792    -2.533474
 H     1.195636     4.565518    -0.802604
 O     0.725911     4.122498    -0.060314
 H     0.036427     4.740652     0.242942
 H    -5.742356     0.980216     1.051051
 O    -6.238661     1.809738     1.201346
 H    -7.162719     1.555341     0.950875
 H    -2.227616    -2.671746     0.292439
 O    -1.768731    -2.069685     0.909157
 H    -0.857138    -2.404272     0.939871
 H    -3.732373    -0.215235     4.174942
 O    -3.748793    -0.310918     5.154953
 H    -4.499693    -0.892794     5.412180
 H    -6.074626    -2.812322     3.179092
 O    -5.640251    -1.945472     3.241470
 H    -4.685464    -2.162417     3.266051
 H    -2.759900    -0.582232    -3.073271
 O    -2.477466    -0.686347    -4.009367
 H    -2.310708    -1.654641    -4.040879
 H    -3.304421    -3.610817    -3.679021
 O    -2.452616    -3.211934    -3.434374
 H    -1.750297    -3.852829    -3.661366
 H     3.352523    -1.341327    -4.182453
 O     2.818127    -1.502058    -4.983613
 H     3.467348    -1.693413    -5.679601
 H     4.829849     2.071236    -6.649947
 O     4.306397     1.243898    -6.639283
 H     3.475804     1.453862    -7.074211
 H    -4.251581     1.119508     5.710769
 O    -4.767420     1.946832     5.899971
 H    -5.267818     2.062087     5.058009
 H    -3.956534    -0.075513     1.889819
 O    -3.437618     0.276132     2.633277
 H    -3.358412     1.244382     2.508181
 H    -5.721662     0.400612    -2.422227
 O    -6.249339    -0.288285    -2.876840
 H    -5.802909    -0.417045    -3.736069
 H     2.039725    -4.001349    -3.965102
 O     2.004655    -4.497138    -4.806592
 H     1.605105    -5.353910    -4.585043
 H     4.548731    -3.575570    -0.449433
 O     4.810111    -2.798854     0.092653
 H     4.042204    -2.181615     0.048438
 H    -0.216785     2.952717    -1.061108
 O    -0.951353     2.549360    -1.553707
 H    -1.673878     3.205362    -1.464955
 H     1.729620     4.443189     1.382209
 O     2.167464     4.616146     2.235463
 H     1.970220     3.849587     2.796230
 H     3.693489     1.248002     1.632692
 O     2.924957     0.668186     1.799011
 H     2.144636     1.249781     1.887154
 H     3.251936    -4.042367    -1.893164
 O     3.951270    -4.649375    -1.546724
 H     4.644236    -4.671670    -2.225123
 H     5.130301    -3.944186    -4.309149
 O     5.539837    -3.594444    -3.480249
 H     5.124236    -2.730476    -3.282508
 H    -1.125832     5.100785     1.854470
 O    -1.290335     5.618800     1.031598
 H    -1.911648     5.094056     0.464873
 H    -5.686677     3.117325     0.204417
 O    -5.228314     3.591719    -0.514826
 H    -5.680271     4.438624    -0.709480
 H     5.024251    -3.721210     3.133616
 O     4.281863    -3.572467     2.541997
 H     4.629818    -3.316464     1.658272
 H     5.856787    -1.214020     1.468923
 O     5.450796    -0.326447     1.415192
 H     6.228497     0.263618     1.455782
 H     1.757876    -6.813389    -2.788319
 O     1.597509    -7.069531    -3.722189
 H     2.481119    -7.152142    -4.109999
 H    -7.155757    -3.679759     0.740700
 O    -8.119415    -3.691255     0.520150
 H    -8.597696    -3.471389     1.348839
 H     3.228785    -2.315279     2.917706
 O     2.533871    -1.646315     3.064816
 H     2.760043    -0.858490     2.538013
 H    -1.922264     2.774220     4.925185
 O    -2.642744     3.434383     5.008147
 H    -3.374707     2.923949     5.406386
 H    -0.853295     1.009001     3.893895
 O    -0.752225     1.584181     4.685905
 H     0.074088     2.060183     4.550226
 H     0.413515     3.146133    -7.086708
 O     1.367081     2.961273    -6.939001
 H     1.380493     2.130389    -6.426981
 H     7.109059    -2.628055     4.913090
 O     6.367554    -3.103339     4.467734
 H     5.549569    -2.740066     4.883300
 H     7.984933     1.586105     1.455614
 O     7.903128     0.668828     1.778485
 H     8.407290     0.094112     1.173001
 H    -3.952722    -0.738635    -4.756185
 O    -4.874169    -0.800965    -5.107995
 H    -4.846670    -0.461860    -6.023626
 H     6.531962    -1.462337    -2.030875
 O     6.931417    -1.890845    -1.268963
 H     6.191914    -2.148343    -0.686372
 H     4.653927    -0.637594     4.514203
 O     5.069675     0.090747     4.023087
 H     5.036979    -0.111813     3.064093
 H    -0.067045     3.392764     2.714902
 O    -0.707961     4.056915     3.036902
 H    -0.425427     4.352391     3.923994
 H     8.298327    -1.186762    -0.552722
 O     9.073725    -0.787177    -0.100124
 H     9.779817    -1.446850    -0.137461
 H     9.631783    -3.645354     2.431718
 O     9.352458    -3.496561     1.502243
 H     10.127567    -3.345906     0.950282
 H    -2.420250    -2.494270     3.860067
 O    -3.029004    -2.614980     3.121501
 H    -2.559418    -2.315801     2.302274
 H    -2.007321     0.487151    -6.382118
 O    -2.641477     1.226557    -6.463267
 H    -2.913980     1.443965    -5.547480
 H    -1.120652     3.589231    -5.714529
 O    -1.222956     3.514840    -6.691940
 H    -1.803593     2.742965    -6.816694
 H    -4.488857    -6.344803    -1.037125
 O    -4.976021    -5.587344    -0.679571
 H    -5.733872    -5.443141    -1.286219
 H     2.792262    -5.836831    -1.260424
 O     1.990625    -6.390493    -1.169447
 H     1.218705    -5.764528    -1.096506
 H     3.471924    -4.457082    -5.449836
 O     4.437205    -4.450806    -5.697569
 H     4.556377    -3.736579    -6.329415
 H     7.442936     3.595040     2.018688
 O     7.381062     3.201576     1.139042
 H     6.454828     2.860329     1.082203
 H     6.694756    -3.791565     0.571501
 O     7.194156    -4.605578     0.391538
 H     8.072693    -4.420500     0.778219
 H    -7.371934    -4.609495    -2.474402
 O    -7.138799    -5.527396    -2.211234
 H    -7.771223    -5.777289    -1.510726
 H    -4.441822     6.897088     4.545880
 O    -3.564176     6.547183     4.298174
 H    -3.080372     6.315436     5.139801
 H     7.173867     3.793663     4.776375
 O     7.194196     3.357650     3.914374
 H     7.452651     2.433541     4.093382
 H    -5.953052     1.022134     6.753011
 O    -6.747784     0.519330     7.065670
 H    -6.478150    -0.415960     6.994008
 H    -0.333964    -4.992896    -2.761790
 O    -0.483105    -4.936203    -3.723180
 H    -1.064909    -5.663443    -3.979341
 H     6.658143     0.464672     4.403825
 O     7.627140     0.663593     4.371692
 H     7.859646     0.585456     3.419536
 H     4.981762    -6.742757    -3.560668
 O     4.303495    -6.954237    -4.237891
 H     4.435989    -6.312461    -4.943510
 H    -5.755015    -2.164314    -5.324189
 O    -6.361432    -2.938405    -5.416839
 H    -7.212548    -2.537855    -5.731974
 H    -7.763665     0.768179     5.791944
 O    -8.303934     1.082037     5.022991
 H    -8.935084     1.709209     5.379352
 H    -5.291008     5.758768     1.913164
 O    -5.534690     6.657899     1.613297
 H    -4.681141     7.139858     1.589638
 H     5.875677     1.490231    -3.996692
 O     6.131552     0.688302    -4.502730
 H     5.654386     0.742457    -5.333171
 H    -5.898624     6.390365    -0.039421
 O    -5.905796     6.125223    -0.982940
 H    -5.012379     6.357683    -1.314121
 H    -0.096167    -7.583894    -2.889533
 O    -0.808025    -7.689560    -2.247736
 H    -0.422998    -7.998710    -1.419279
 H    -2.587567    -1.418790     5.488641
 O    -1.932984    -2.133379     5.671262
 H    -1.106675    -1.651531     5.866888
 H     7.628172    -4.488125    -1.264968
 O     7.764855    -4.516214    -2.236292
 H     6.994393    -4.059173    -2.615691
 H    -8.697569    -3.165572    -3.378017
 O    -7.784075    -3.060923    -3.025809
 H    -7.225595    -2.897739    -3.801186
 H     8.947485    -3.338040    -2.645667
 O     9.576086    -2.615907    -2.857276
 H     9.065759    -1.787806    -2.804952
 H    -4.934546    -5.169276    -3.523484
 O    -4.910476    -4.201477    -3.432890
 H    -5.419976    -3.843274    -4.170227
 H    -3.590113     3.813427    -3.802310
 O    -3.315119     4.684063    -3.471929
 H    -3.596899     5.354896    -4.095058
 H    -0.181737     4.560177    -4.283687
 O    -0.835425     3.870043    -4.072219
 H    -1.630296     4.321859    -3.723696
 H    -1.978602    -3.904108     5.437904
 O    -2.257122    -4.781098     5.130849
 H    -3.186250    -4.655967     4.869948
 H    -2.382091     8.185308    -4.177362
 O    -2.575218     7.228036    -4.248231
 H    -2.355743     6.955996    -5.166488
 H    -3.089478     7.390074     2.823405
 O    -2.999405     7.548808     1.866798
 H    -2.386892     6.849774     1.560010
 H     4.742366     1.756387     4.168253
 O     4.580761     2.701455     3.957509
 H     5.455673     3.062212     3.719913
 H     7.804552    -1.444942     6.419478
 O     8.264320    -1.673883     5.588111
 H     8.222417    -0.847074     5.067955
 H     5.917109    -1.152484     7.887167
 O     6.624164    -0.639528     7.483419
 H     6.166699     0.089829     7.008180
 H    -1.636058     5.344953    -6.766756
 O    -1.784079     6.291209    -6.616014
 H    -0.915877     6.721469    -6.713691
 H    -8.234724    -0.139179     3.755061
 O    -8.030080    -0.706226     2.998740
 H    -7.123895    -1.038878     3.130233
 H    -8.490107     0.034011    -0.012723
 O    -8.541064     0.702122     0.690904
 H    -8.523719     0.189908     1.517158
 H     0.758403    -0.319330     5.897879
 O    -0.084118    -0.383201     6.405720
 H    -0.586003     0.374022     6.056527
 H    -0.470670     6.911928    -2.001713
 O    -0.407300     6.490051    -2.882298
 H    -1.255564     6.661097    -3.349895
 H     0.682405    -8.009974     0.885902
 O    -0.216715    -8.276354     0.640192
 H    -0.683842    -8.307734     1.503180
 H     1.915939     2.883322     5.119221
 O     1.947028     2.561237     4.192701
 H     2.892323     2.584549     3.957397
 H    -7.786536    -5.831780    -5.472556
 O    -6.885038    -5.694673    -5.807116
 H    -6.741793    -4.739311    -5.790477
 H     3.127985    -7.518683     1.393350
 O     2.238767    -7.164068     1.316286
 H     2.170756    -6.869431     0.371711
 H     3.441437     5.384533    -7.629136
 O     3.605756     4.420389    -7.706656
 H     2.776699     3.972004    -7.478518
 H    -0.564430     6.966451     0.165672
 O    -0.254505     7.649034    -0.453351
 H    -0.937051     8.335187    -0.442532
 H     4.328152     3.891122     5.103783
 O     4.222850     4.569206     5.813742
 H     5.096358     4.655726     6.204479
 H     7.514002     3.140411     6.782020
 O     6.979801     3.969523     6.659829
 H     7.449608     4.655370     7.132953
 H     4.178813    -8.022483    -0.655674
 O     4.680492    -7.456865    -0.045911
 H     5.128068    -6.831347    -0.638499
 H     6.852796    -6.009182    -2.345117
 O     6.089448    -6.613405    -2.285158
 H     6.434521    -7.517311    -2.171922
 H    -9.004091    -2.108798     2.876483
 O    -9.477586    -2.941359     2.667587
 H    -10.205216    -2.668316     2.083109
 H    -2.750709     8.728484     0.537537
 O    -2.595468     9.049559    -0.367036
 H    -3.393364     9.595199    -0.574791
 H     7.974327     1.020597     7.428265
 O     8.321289     1.695606     6.834898
 H     8.192503     1.329600     5.942778
 H    -3.014486     5.543659     7.075144
 O    -2.284414     5.604031     6.420644
 H    -2.350845     4.710669     5.967502
 H    -6.145997    -6.627649    -3.207483
 O    -5.463079    -6.845470    -3.867775
 H    -5.890725    -6.599915    -4.716548
 H     6.785630    -2.630721     2.883843
 O     6.923918    -2.410292     1.943694
 H     7.875091    -2.484538     1.778128
 H     2.306670     6.663316    -1.118366
 O     2.543731     7.431011    -0.551203
 H     1.690837     7.772754    -0.255533
 H    -4.044151    -7.526474    -2.682699
 O    -3.496793    -7.531868    -1.889044
 H    -2.579667    -7.657889    -2.192304
 H     0.950895     6.445086    -5.939924
 O     0.778646     7.296258    -6.405846
 H     0.775781     7.960551    -5.685875
 H    -8.204978    -1.805568    -1.786716
 O    -8.516625    -1.502781    -0.919591
 H    -8.289490    -2.264644    -0.340214
 H    -3.268805     6.962295    -2.595092
 O    -3.384366     6.822300    -1.645641
 H    -3.097141     7.647122    -1.200050
 H     2.839913    -4.457345     2.527331
 O     1.927859    -4.808877     2.530915
 H     2.000922    -5.715169     2.166874
 H    -8.699088    -1.075182    -5.191930
 O    -8.590407    -1.685229    -5.958440
 H    -8.296566    -1.114315    -6.690223
 H     7.636905    -0.165215    -3.804433
 O     8.268492    -0.165182    -3.066631
 H     8.939461     0.498250    -3.281237
 H     4.183570     6.681910    -0.334651
 O     4.901494     6.046391    -0.486614
 H     4.454302     5.195163    -0.690657
 H    -7.871170    -0.082177    -3.399542
 O    -8.761144    -0.091639    -3.808837
 H    -9.375270    -0.301953    -3.104034
 H     6.172883     3.689594    -3.370120
 O     5.698929     2.913824    -3.017523
 H     6.276873     2.525104    -2.318778
 H    -1.253087    -6.946178     0.334748
 O    -1.871469    -6.219013     0.117321
 H    -2.449039    -6.559290    -0.572810
 H    -3.885815    -7.808537     1.220938
 O    -4.132890    -7.515820     2.101259
 H    -3.927164    -6.550788     2.127561
 H    -2.820060    -5.087786     1.299247
 O    -3.544902    -4.947860     1.930114
 H    -3.278280    -4.202487     2.505647
 H     5.243211    -5.965884     5.134064
 O     4.497003    -5.754162     4.569991
 H     4.811870    -5.881858     3.659422
 H    -9.415539    -6.480748    -3.838795
 O    -9.417698    -6.059254    -4.728846
 H    -10.043467    -6.558765    -5.253765
 H     6.327052    -5.577692     1.526507
 O     5.807868    -6.146767     2.131411
 H     5.369796    -6.768112     1.537777
 H    -1.335806    -6.670779     2.797218
 O    -1.470411    -7.628964     2.891069
 H    -2.429380    -7.761404     2.872065
 H    -9.928260    -4.347050    -4.523084
 O    -10.069853    -3.411739    -4.299352
 H    -9.827313    -2.893454    -5.078717
 H     0.478671     7.782288    -3.629640
 O     0.799760     8.601181    -4.061945
 H     1.692250     8.765950    -3.692665
 H    -8.962165    -8.166201    -2.372288
 O    -9.556764    -7.415970    -2.417976
 H    -9.457910    -6.943779    -1.571500
 H     2.009393     0.842023     4.543894
 O     2.103981     0.011938     5.049194
 H     2.334364    -0.693882     4.409039
 H    -6.384410    -0.031207    -7.762358
 O    -7.346355     0.051789    -7.656686
 H    -7.513922     0.964106    -7.417200
 H     6.366518     3.595122    -7.368547
 O     5.762830     3.559017    -6.626606
 H     4.918696     3.997035    -6.955933
 H    -5.416090     10.225838     0.054568
 O    -4.910011     10.214970    -0.768753
 H    -5.478930     9.699185    -1.373355
 H    -0.658620    -1.407734    -5.752325
 O    -0.813547    -0.785903    -6.496210
 H    -0.034911    -0.197889    -6.454088
 H     4.906919    -0.734710    -6.863005
 O     4.993829    -1.656635    -6.597715
 H     5.831742    -1.727680    -6.107168
 H     2.675860    -8.957059    -2.222833
 O     3.631840    -8.877308    -2.203121
 H     3.869116    -8.322130    -2.960625
 H    -4.054200    -0.855918    -7.966941
 O    -4.576398    -0.092900    -7.675768
 H    -3.908601     0.567628    -7.380976
 H     1.195864     4.005963     6.496512
 O     1.948478     3.430333     6.734696
 H     2.755744     3.962227     6.610065
 H    -11.290854    -2.773227    -0.121204
 O    -10.890232    -2.109336     0.440354
 H    -10.151244    -1.734541    -0.070872
 H    -7.902403     2.044907     7.534802
 O    -8.432585     2.841551     7.343030
 H    -8.671505     3.204798     8.202194
 H     6.314982    -9.066375    -0.668179
 O     6.417335    -9.226641    -1.611342
 H     5.540472    -9.474570    -1.930139
 H     6.598876     5.224540    -0.929459
 O     7.248989     4.554216    -1.164182
 H     7.428436     4.060623    -0.337923
 H    -5.431036    -2.663551     5.827594
 O    -5.465757    -1.873974     6.411984
 H    -4.847352    -2.088289     7.132261
 H     2.473916     1.815207     7.415784
 O     2.950706     0.973614     7.376773
 H     2.649426     0.546956     6.547305
 H    -2.793879    -2.579184     7.088307
 O    -3.297345    -2.677685     7.925304
 H    -2.690417    -2.315605     8.587505
 H     5.651241     2.363461     6.646192
 O     5.377237     1.475189     6.410788
 H     4.485392     1.334775     6.792953
 H     1.963189    -4.173782     4.323442
 O     2.428600    -4.068720     5.165752
 H     3.134773    -4.737617     5.127052
 H     10.512008    -2.730234    -1.503035
 O     10.991051    -2.694900    -0.630909
 H     11.924198    -2.668186    -0.835412
 H     3.889853     8.150553    -3.208060
 O     3.198358     8.735418    -2.874413
 H     3.009223     8.424266    -1.970244
 H    -8.085409    -6.546006     0.487639
 O    -8.724226    -6.157256    -0.131705
 H    -8.683570    -5.196033     0.094878
 H    -0.727026     9.482188    -3.737274
 O    -1.670694     9.648503    -3.551668
 H    -1.756907     9.809623    -2.609515
 H     4.184681     3.848917    -3.888467
 O     3.626565     4.629116    -3.959564
 H     4.176923     5.417978    -3.772919
 H     5.176121     6.517184    -2.184808
 O     5.123787     6.682085    -3.146553
 H     5.917510     6.312728    -3.554452
 H    -0.534929     5.415835     5.830567
 O     0.193284     4.935333     5.417736
 H     0.882156     5.575551     5.118147
 H     3.067956     5.800098     4.930459
 O     2.308308     6.214012     4.494691
 H     2.277637     5.842136     3.599154
 H    -7.229145     8.870108    -0.742218
 O    -6.922350     8.606384    -1.619695
 H    -6.680407     7.666783    -1.541870
 H    -1.305948    -4.901101     3.757815
 O    -0.843261    -4.846605     2.890779
 H     0.075966    -5.096852     3.016256
 H     4.154567    -1.839945     6.388863
 O     4.174968    -2.039061     5.428115
 H     3.469971    -2.700069     5.272169
 H     7.127451    -5.970060     3.565060
 O     7.484748    -5.565329     4.365435
 H     7.000858    -4.724381     4.468898
 H     9.021412    -4.584375     4.280881
 O     9.650269    -3.855283     4.123025
 H     9.366098    -3.129845     4.692647
 H     3.169119     7.561412    -8.369251
 O     3.161999     7.060585    -7.554862
 H     2.280130     7.223308    -7.139850
 H    -0.714541    -0.971000     8.128117
 O    -0.932943    -1.577398     8.849891
 H    -0.215258    -2.216653     8.870293
 H     8.392938     4.433335    -2.329600
 O     9.084242     4.430834    -3.041134
 H     9.797141     4.968422    -2.696013
 H     6.467283     4.482531    -5.278772
 O     6.770036     4.919430    -4.460880
 H     7.716633     4.774866    -4.349644
 H     10.735416     2.042069    -4.091386
 O     9.989051     1.954081    -3.500588
 H     9.597564     2.848784    -3.384729
 H     3.040403    -2.051958     8.031679
 O     3.868365    -1.533395     8.025680
 H     3.581727    -0.607720     8.055047
 H    -2.206588    -2.424359    -8.743840
 O    -2.633913    -2.060907    -7.969274
 H    -1.943319    -1.575998    -7.467648
 H     5.048076     5.484225     1.365485
 O     4.833429     4.960501     2.147622
 H     3.862255     4.982021     2.229351
 H    -3.574364    -6.587410    -4.613785
 O    -2.770405    -6.070686    -4.702891
 H    -2.997008    -5.322265    -5.277497
 H    -6.701713     6.321191     4.536892
 O    -6.292884     7.134616     4.186529
 H    -6.130140     6.948296     3.230192
 H    -7.601069     4.170779     6.062474
 O    -7.087631     4.631073     5.375296
 H    -6.939611     3.945283     4.698185
 H    -7.366797     9.502865     1.861078
 O    -7.114616     9.853904     0.982786
 H    -7.585057     10.682734     0.887198
 H    -5.903508    -6.944297     1.901614
 O    -6.515124    -6.339293     1.453642
 H    -5.969292    -5.925143     0.751180
 H    -3.845266    -4.407094     7.757347
 O    -4.064943    -5.272078     7.366900
 H    -3.262866    -5.559702     6.915494
 H     9.577235     0.869365    -0.439391
 O     9.621164     1.815910    -0.667335
 H     9.945945     1.844643    -1.573390
 H    -7.954666    -4.153223     3.296434
 O    -7.026499    -4.406684     3.329173
 H    -6.878647    -5.079905     2.634181
 H     0.978370    -1.991133     7.007132
 O     1.477205    -2.709563     7.411228
 H     1.709849    -3.313264     6.688539
 H    -3.258649    -3.260634    -6.760555
 O    -3.677561    -3.862477    -6.127774
 H    -4.625649    -3.744534    -6.232819
 H    -8.819811     8.438750     3.288071
 O    -8.036473     8.981962     3.386232
 H    -7.361135     8.410142     3.807992
 H     8.159209    -2.296643    -4.943233
 O     7.232598    -2.056666    -4.995180
 H     6.761550    -2.675782    -4.406058
 H    -4.924416    -4.710882     5.908426
 O    -4.962947    -4.163834     5.099556
 H    -5.712411    -4.447274     4.556358
 N    -4.748506     5.006024     7.766056
 H    -5.204904     5.501456     8.526573
 H    -4.619429     4.046773     8.076033
 H    -5.410326     4.964365     6.991237
