604
grain_mol59 // -1503.049802113163 // -34.8986422942 // -515.165327147363 // -1022.78311726 // -0.0277113187 // -0.58282948847 // -0.007062639894
 H    -1.890276    -0.086340     2.462078
 O    -0.914733    -0.059562     2.565422
 H    -0.647735    -0.952316     2.888644
 H    -0.394850    -1.823392    -2.857651
 O    -0.490837    -1.849481    -1.893049
 H    -1.442616    -1.757118    -1.720331
 H    -2.811093     1.828616     0.834833
 O    -2.698884     1.193005     0.108115
 H    -1.901173     1.479167    -0.372761
 H    -3.715117     1.965267    -3.057015
 O    -3.182701     2.316349    -3.808775
 H    -2.286044     2.444824    -3.482193
 H    -0.144421    -0.612309    -0.778579
 O    -0.032889     0.113138    -0.134093
 H    -0.479664    -0.179207     0.671181
 H     1.002052    -1.874269    -4.753979
 O     0.060072    -2.056018    -4.600651
 H    -0.033432    -3.019490    -4.645203
 H    -4.957151     2.427047    -1.338304
 O    -4.583635     1.603101    -1.707247
 H    -3.923923     1.319105    -1.030682
 H    -3.652634     3.363166     2.472041
 O    -2.926658     2.744040     2.263998
 H    -2.165125     3.083045     2.769593
 H     2.569430     0.288737    -2.847853
 O     1.952910    -0.346760    -2.429699
 H     1.055647    -0.033076    -2.653392
 H    -1.108404     0.362004    -3.589461
 O    -0.308057     0.837865    -3.284965
 H    -0.571576     1.430665    -2.561914
 H     2.605432    -0.583663     0.656054
 O     2.524456    -1.325728     0.021864
 H     2.282235    -0.936474    -0.840092
 H    -2.890370    -0.450885    -0.630522
 O    -3.009026    -0.906672    -1.474437
 H    -3.815912    -1.450475    -1.420551
 H     2.789009     1.261348    -0.695836
 O     1.967489     1.774521    -0.595658
 H     1.247533     1.126925    -0.441886
 H     0.597443     3.214673    -3.167368
 O     1.509806     3.026544    -2.911182
 H     1.492510     2.559862    -2.055827
 H     0.073023    -3.981345    -0.546720
 O    -0.145449    -4.663965    -1.220838
 H    -0.938908    -5.116846    -0.854191
 H    -6.360606     2.141437     2.918152
 O    -6.440703     2.337394     3.888410
 H    -7.200175     1.809673     4.204823
 H     1.045084    -3.727709     1.331460
 O     0.647151    -3.075921     0.725811
 H     1.334513    -2.418018     0.495396
 H    -2.910377     5.247863    -0.994137
 O    -2.744750     4.446776    -0.462406
 H    -3.638064     4.081431    -0.292973
 H    -5.603454    -1.256914     1.577775
 O    -5.313119    -0.617385     0.892893
 H    -5.402321    -1.071767     0.049781
 H    -0.475510    -3.215402     3.039631
 O    -0.174033    -2.408040     3.489586
 H     0.775098    -2.310634     3.307216
 H     5.226311     1.023645    -1.004083
 O     4.433406     0.496540    -0.828094
 H     4.641220     0.078237     0.037267
 H     0.662699     2.393217     1.116936
 O     0.632222     2.050348     2.019439
 H     0.018221     1.294146     2.050788
 H     4.448566    -0.495209    -2.196320
 O     4.664335    -0.977771    -3.026463
 H     5.163905    -0.331761    -3.568947
 H     3.032079     3.260865    -0.872786
 O     3.910666     3.660009    -0.826190
 H     4.415548     3.370569    -1.610590
 H    -5.890268    -1.457832    -2.016943
 O    -5.374017    -2.162155    -1.568162
 H    -5.275578    -2.875752    -2.222014
 H    -5.010066    -4.047031     1.130046
 O    -5.688926    -3.411885     0.834230
 H    -5.435934    -3.124444    -0.053315
 H     2.753529     2.168844    -3.553009
 O     3.426837     1.484801    -3.746479
 H     3.523584     1.454746    -4.703850
 H    -5.281066     3.855219     3.674204
 O    -4.695930     4.443814     3.185698
 H    -4.182013     4.970825     3.834326
 H     0.702598     1.039974    -4.674309
 O     1.211338     0.926115    -5.503344
 H     1.811117     0.170240    -5.333644
 H     1.055744     5.805234    -2.191465
 O     1.835717     5.472946    -1.715290
 H     2.404786     5.027703    -2.374197
 H    -2.812742    -3.452334    -1.849142
 O    -2.984267    -3.708749    -0.927151
 H    -3.751310    -4.298478    -0.919534
 H     2.157702     5.193968    -4.419953
 O     1.292861     5.289394    -4.855845
 H     1.294294     4.596469    -5.543247
 H     7.748290     1.820794    -0.687983
 O     6.965635     1.463444    -1.147944
 H     7.337212     0.783532    -1.747188
 H     4.454441     2.763641     0.497604
 O     4.763788     2.398529     1.351464
 H     4.682794     3.145588     1.980102
 H     1.051213    -3.162087    -2.149446
 O     1.919677    -3.010388    -2.550082
 H     2.012173    -2.034635    -2.572667
 H     1.166106     4.609011    -0.503463
 O     0.688426     4.135566     0.215000
 H     0.005614     4.745972     0.545985
 H    -5.819702     1.009600     1.144006
 O    -6.306833     1.837893     1.327692
 H    -7.234500     1.606004     1.067345
 H    -2.342632    -2.634312     0.215380
 O    -1.878313    -2.069181     0.862236
 H    -0.970883    -2.415943     0.878166
 H    -3.830565    -0.375245     4.209476
 O    -3.846547    -0.515002     5.183870
 H    -4.608115    -1.092898     5.417613
 H    -6.199438    -2.878172     3.082724
 O    -5.754409    -2.020866     3.187292
 H    -4.802651    -2.250795     3.205776
 H    -2.842793    -0.370234    -3.040826
 O    -2.559239    -0.429689    -3.980446
 H    -2.403025    -1.396946    -4.060897
 H    -3.419556    -3.357693    -3.801311
 O    -2.563982    -2.981313    -3.535140
 H    -1.868228    -3.617809    -3.792824
 H     3.264316    -1.140573    -4.175116
 O     2.729372    -1.254647    -4.984180
 H     3.378163    -1.417230    -5.687895
 H     4.785864     2.374216    -6.462229
 O     4.251695     1.554087    -6.496141
 H     3.424633     1.797462    -6.920123
 H    -4.365421     0.917297     5.719591
 O    -4.850780     1.742647     5.976719
 H    -5.396283     1.973656     5.197775
 H    -4.047790    -0.106979     1.935498
 O    -3.525869     0.198527     2.697065
 H    -3.437449     1.170554     2.625252
 H    -5.795082     0.611756    -2.346635
 O    -6.329047    -0.047004    -2.837042
 H    -5.881727    -0.136839    -3.700720
 H     1.920724    -3.793646    -4.096177
 O     1.881585    -4.245667    -4.961832
 H     1.472126    -5.108006    -4.784646
 H     4.424101    -3.577032    -0.557616
 O     4.691750    -2.832537     0.025021
 H     3.931793    -2.204359     0.009448
 H    -0.264588     3.027980    -0.846354
 O    -1.003197     2.658922    -1.359280
 H    -1.718058     3.318083    -1.239312
 H     1.692236     4.370388     1.673562
 O     2.126082     4.495917     2.537195
 H     1.922047     3.701705     3.055368
 H     3.618388     1.144316     1.764438
 O     2.842663     0.565911     1.901551
 H     2.069210     1.151329     2.016912
 H     3.126652    -3.954350    -2.026212
 O     3.817853    -4.586662    -1.710157
 H     4.513120    -4.579888    -2.386798
 H     5.012352    -3.754061    -4.429411
 O     5.422230    -3.452944    -3.582180
 H     5.018490    -2.593693    -3.342533
 H    -1.158156     5.034101     2.173402
 O    -1.317693     5.597810     1.380535
 H    -1.940449     5.109059     0.783085
 H    -5.736997     3.188845     0.411561
 O    -5.268144     3.697236    -0.277450
 H    -5.713058     4.556044    -0.431295
 H     4.889629    -3.909647     3.013706
 O     4.149859    -3.722734     2.429751
 H     4.502467    -3.426080     1.560427
 H     5.754498    -1.330530     1.480700
 O     5.358822    -0.436721     1.473117
 H     6.143966     0.141146     1.542551
 H     1.603941    -6.658819    -3.064555
 O     1.443296    -6.865836    -4.010512
 H     2.327035    -6.937799    -4.400210
 H    -7.283531    -3.607937     0.601543
 O    -8.246591    -3.597201     0.378607
 H    -8.724574    -3.413542     1.216504
 H     3.110548    -2.474486     2.866492
 O     2.423186    -1.805673     3.046698
 H     2.659371    -0.995136     2.560275
 H    -2.074043     2.626148     5.110657
 O    -2.792660     3.270274     5.250673
 H    -3.543162     2.763996     5.615222
 H    -0.951354     0.855618     4.008528
 O    -0.847090     1.398108     4.822330
 H    -0.003557     1.850320     4.713079
 H     0.382683     3.521312    -6.852100
 O     1.333662     3.318510    -6.712043
 H     1.336776     2.462342    -6.243189
 H     6.981620    -2.932636     4.851079
 O     6.236005    -3.376767     4.381327
 H     5.421000    -3.025383     4.812445
 H     7.914692     1.441581     1.612454
 O     7.820831     0.510646     1.890408
 H     8.320019    -0.038106     1.256893
 H    -4.032671    -0.427290    -4.731981
 O    -4.953813    -0.460991    -5.088572
 H    -4.920007    -0.075880    -5.985567
 H     6.441862    -1.403691    -2.022445
 O     6.827969    -1.886439    -1.286565
 H     6.082205    -2.158695    -0.719684
 H     4.550539    -0.896516     4.547912
 O     4.975021    -0.148016     4.096353
 H     4.944492    -0.301022     3.127772
 H    -0.123532     3.273028     2.946160
 O    -0.758326     3.925310     3.304995
 H    -0.467084     4.173569     4.203644
 H     8.201260    -1.230126    -0.532669
 O     8.977616    -0.866650    -0.052588
 H     9.677985    -1.528745    -0.127340
 H     9.499719    -3.851324     2.326003
 O     9.223975    -3.654324     1.404700
 H     10.001178    -3.482099     0.862184
 H    -2.542860    -2.637650     3.786945
 O    -3.150275    -2.714184     3.041463
 H    -2.675446    -2.377763     2.240054
 H    -2.069211     0.857717    -6.289227
 O    -2.694892     1.607444    -6.333915
 H    -2.967365     1.780992    -5.408814
 H    -1.149780     3.911569    -5.462461
 O    -1.250954     3.888673    -6.442548
 H    -1.839437     3.130416    -6.607593
 H    -4.641660    -6.209334    -1.304852
 O    -5.120912    -5.465336    -0.910334
 H    -5.875849    -5.281990    -1.509962
 H     2.645184    -5.773180    -1.487278
 O     1.837129    -6.321753    -1.425937
 H     1.072196    -5.691504    -1.322716
 H     3.351360    -4.189212    -5.599544
 O     4.317041    -4.182288    -5.845243
 H     4.446713    -3.436716    -6.437600
 H     7.392222     3.425500     2.280476
 O     7.328985     3.078244     1.381950
 H     6.400464     2.750034     1.303592
 H     6.565646    -3.868824     0.453103
 O     7.055650    -4.679225     0.235031
 H     7.935280    -4.523323     0.631877
 H    -7.501257    -4.370474    -2.657344
 O    -7.279320    -5.303248    -2.441016
 H    -7.916086    -5.580999    -1.754970
 H    -4.525864     6.738204     4.927695
 O    -3.635124     6.403490     4.711047
 H    -3.170937     6.186321     5.533929
 H     7.118637     3.484742     5.044710
 O     7.135066     3.094637     4.161051
 H     7.384508     2.159806     4.290269
 H    -5.999857     0.833222     6.840189
 O    -6.776944     0.289942     7.108208
 H    -6.500597    -0.631137     6.968927
 H    -0.467286    -4.818229    -2.949492
 O    -0.613617    -4.711177    -3.907036
 H    -1.202744    -5.417968    -4.200862
 H     6.567845     0.187027     4.497756
 O     7.539064     0.376025     4.478186
 H     7.772915     0.345190     3.523071
 H     4.830096    -6.585482    -3.825828
 O     4.151919    -6.755090    -4.514895
 H     4.292746    -6.078633    -5.185687
 H    -5.849401    -1.801420    -5.375718
 O    -6.464138    -2.562859    -5.509356
 H    -7.309952    -2.137063    -5.805086
 H    -7.844341     0.600967     5.875037
 O    -8.388913     0.942365     5.121134
 H    -9.007698     1.567087     5.502965
 H    -5.317514     5.737087     2.256953
 O    -5.546580     6.652722     1.997128
 H    -4.688134     7.125083     2.003117
 H     5.820737     1.648024    -3.838864
 O     6.062501     0.868427    -4.385095
 H     5.591167     0.974927    -5.213649
 H    -5.912855     6.472718     0.334663
 O    -5.918883     6.257458    -0.621461
 H    -5.021469     6.495916    -0.936661
 H    -0.258190    -7.401971    -3.208630
 O    -0.973125    -7.532773    -2.574930
 H    -0.593844    -7.887338    -1.762153
 H    -2.702629    -1.647157     5.466831
 O    -2.054506    -2.376381     5.615451
 H    -1.224724    -1.912850     5.836317
 H     7.496693    -4.480506    -1.413519
 O     7.634855    -4.462191    -2.384745
 H     6.871550    -3.975549    -2.740988
 H    -8.808148    -2.867157    -3.489002
 O    -7.894314    -2.791305    -3.130439
 H    -7.332193    -2.594823    -3.895347
 H     8.868517    -3.297578    -2.742920
 O     9.502905    -2.563271    -2.906431
 H     8.961091    -1.743077    -2.826386
 H    -5.067711    -4.903504    -3.728646
 O    -5.032717    -3.941884    -3.589175
 H    -5.536432    -3.540867    -4.308200
 H    -3.620781     4.065914    -3.545453
 O    -3.337751     4.915812    -3.170622
 H    -3.610487     5.620031    -3.760015
 H    -0.203014     4.797023    -3.982364
 O    -0.865703     4.105158    -3.807513
 H    -1.655983     4.548113    -3.438048
 H    -2.121207    -4.130784     5.291345
 O    -2.408344    -4.987809     4.939056
 H    -3.335658    -4.839183     4.683680
 H    -2.363314     8.437343    -3.695869
 O    -2.567164     7.487251    -3.815524
 H    -2.348234     7.259493    -4.745974
 H    -3.095978     7.290920     3.265609
 O    -3.002617     7.495745     2.320117
 H    -2.398117     6.807704     1.974102
 H     4.666367     1.510254     4.325250
 O     4.515530     2.467216     4.165516
 H     5.394683     2.829344     3.945639
 H     7.686851    -1.835268     6.416705
 O     8.146360    -2.026847     5.575892
 H     8.114692    -1.174499     5.097707
 H     5.798610    -1.597923     7.893518
 O     6.512644    -1.072549     7.519080
 H     6.064840    -0.315402     7.079545
 H    -1.642768     5.724551    -6.424302
 O    -1.780336     6.663642    -6.226089
 H    -0.906857     7.088063    -6.299663
 H    -8.330238    -0.212223     3.792155
 O    -8.130025    -0.741511     3.007332
 H    -7.228477    -1.091235     3.124272
 H    -8.574070     0.151806     0.036158
 O    -8.619196     0.785128     0.771626
 H    -8.609777     0.233541     1.572434
 H     0.652686    -0.600458     5.937627
 O    -0.191638    -0.677736     6.440663
 H    -0.686590     0.099266     6.127513
 H    -0.472127     7.032878    -1.584378
 O    -0.411500     6.655580    -2.484926
 H    -1.256425     6.860151    -2.945032
 H     0.505325    -8.028760     0.541561
 O    -0.395999    -8.272399     0.280775
 H    -0.865837    -8.341863     1.140103
 H     1.851984     2.618343     5.326969
 O     1.880992     2.344981     4.385703
 H     2.827161     2.369066     4.152825
 H    -7.921802    -5.433258    -5.714707
 O    -7.018088    -5.289540    -6.040422
 H    -6.863985    -4.338001    -5.974491
 H     2.955190    -7.591670     1.078125
 O     2.070069    -7.223839     1.017540
 H     2.007787    -6.880452     0.089142
 H     3.436632     5.749880    -7.273841
 O     3.589523     4.789494    -7.402493
 H     2.755549     4.339324    -7.197029
 H    -0.571683     6.978000     0.583475
 O    -0.252316     7.687928     0.001300
 H    -0.927304     8.380175     0.044779
 H     4.274285     3.598677     5.367939
 O     4.173413     4.240487     6.112070
 H     5.046950     4.297756     6.508217
 H     7.445901     2.727006     7.013119
 O     6.920547     3.567176     6.934695
 H     7.400060     4.223299     7.439161
 H     4.005346    -8.002383    -0.991837
 O     4.512218    -7.474930    -0.352892
 H     4.967869    -6.824510    -0.911603
 H     6.705631    -5.935079    -2.570307
 O     5.936121    -6.534251    -2.543441
 H     6.271711    -7.446029    -2.475645
 H    -9.119075    -2.126054     2.812132
 O    -9.600394    -2.941624     2.558251
 H    -10.324597    -2.630405     1.988929
 H    -2.738938     8.744304     1.042856
 O    -2.577829     9.108206     0.156370
 H    -3.369402     9.672502    -0.026312
 H     7.882041     0.572631     7.549445
 O     8.237629     1.273529     6.992319
 H     8.107332     0.955158     6.082153
 H    -2.580050     5.055499     7.676394
 O    -2.280161     5.280795     6.796899
 H    -2.460915     4.479556     6.219953
 H    -6.296261    -6.362066    -3.489891
 O    -5.614257    -6.553856    -4.159196
 H    -6.036939    -6.260355    -4.995118
 H     6.664539    -2.828684     2.823178
 O     6.806330    -2.562656     1.895684
 H     7.757028    -2.636274     1.727185
 H     2.300329     6.708132    -0.708948
 O     2.542770     7.443806    -0.102803
 H     1.692362     7.779363     0.206515
 H    -4.205929    -7.310428    -3.007542
 O    -3.660785    -7.362810    -2.214085
 H    -2.744281    -7.483315    -2.521430
 H     0.954957     6.751228    -5.537500
 O     0.792752     7.626988    -5.959624
 H     0.795864     8.253696    -5.206765
 H    -8.304275    -1.596346    -1.829597
 O    -8.614722    -1.334296    -0.948941
 H    -8.398214    -2.127114    -0.408231
 H    -3.267706     7.144929    -2.179918
 O    -3.386325     6.958509    -1.238808
 H    -3.091845     7.756655    -0.751907
 H     2.698562    -4.589153     2.366332
 O     1.782570    -4.930089     2.350486
 H     1.846236    -5.817315     1.940665
 H    -8.781456    -0.687237    -5.193928
 O    -8.677553    -1.258401    -5.990547
 H    -8.375454    -0.654105    -6.691486
 H     7.585407    -0.126753    -3.743239
 O     8.165116    -0.110559    -2.962805
 H     8.800419     0.633638    -3.100217
 H     4.173183     6.665621     0.079657
 O     4.884777     6.030555    -0.100028
 H     4.430488     5.196000    -0.351546
 H    -7.947194     0.203773    -3.351688
 O    -8.836020     0.225033    -3.762989
 H    -9.454379    -0.013304    -3.070900
 H     6.140709     3.808334    -3.099024
 O     5.655097     3.022030    -2.787862
 H     6.229161     2.589133    -2.111243
 H    -1.416555    -6.916452     0.041412
 O    -2.025995    -6.172132    -0.140128
 H    -2.605827    -6.470292    -0.847606
 H    -4.061239    -7.792480     0.877118
 O    -4.306950    -7.542619     1.770919
 H    -4.090801    -6.582454     1.846981
 H    -2.964744    -5.091879     1.096391
 O    -3.689873    -4.976356     1.731799
 H    -3.416744    -4.264439     2.345477
 H     5.078050    -6.255682     4.897398
 O     4.335198    -6.007911     4.343666
 H     4.651046    -6.091761     3.428301
 H    -9.562247    -6.146088    -4.119282
 O    -9.557261    -5.680092    -4.986888
 H    -10.187664    -6.144890    -5.537502
 H     6.175253    -5.696299     1.317175
 O     5.648456    -6.290106     1.891240
 H     5.204825    -6.874954     1.265556
 H    -1.502509    -6.765889     2.514873
 O    -1.648168    -7.726058     2.559012
 H    -2.608572    -7.846249     2.531464
 H    -10.049034    -3.974658    -4.695397
 O    -10.180876    -3.050402    -4.424755
 H    -9.930265    -2.495857    -5.176087
 H     0.491838     7.974132    -3.163504
 O     0.822827     8.810812    -3.551973
 H     1.716709     8.945589    -3.173691
 H    -9.131841    -7.908926    -2.739481
 O    -9.718038    -7.150788    -2.748386
 H    -9.615981    -6.723055    -1.878915
 H     1.923373     0.608670     4.646850
 O     2.005950    -0.246181     5.111052
 H     2.230706    -0.921912     4.436865
 H    -6.448304     0.460420    -7.703040
 O    -7.409592     0.548883    -7.595797
 H    -7.567593     1.449374    -7.309585
 H     6.342062     3.914527    -7.099407
 O     5.733654     3.845003    -6.363882
 H     4.897130     4.311413    -6.671168
 H    -5.385566     10.293926     0.629636
 O    -4.876425     10.318770    -0.191580
 H    -5.449859     9.841339    -0.823109
 H    -0.743850    -1.082123    -5.754201
 O    -0.889975    -0.421377    -6.465665
 H    -0.104657     0.154678    -6.391735
 H     4.831319    -0.415560    -6.816161
 O     4.906400    -1.351722    -6.601893
 H     5.741264    -1.458970    -6.112666
 H     2.496164    -8.838470    -2.607418
 O     3.453009    -8.771579    -2.582203
 H     3.698503    -8.180522    -3.309356
 H    -4.127020    -0.379330    -7.944660
 O    -4.641319     0.373944    -7.616411
 H    -3.966843     1.010700    -7.286544
 H     1.145900     3.683923     6.751497
 O     1.885445     3.085597     6.974380
 H     2.702878     3.607312     6.872533
 H    -11.405273    -2.611961    -0.222478
 O    -10.999195    -1.982200     0.373397
 H    -10.254678    -1.589647    -0.115840
 H    -7.635190     1.974540     7.479144
 O    -8.104304     2.816695     7.390893
 H    -8.240579     3.149145     8.277561
 H     6.129306    -9.068233    -1.052784
 O     6.232801    -9.183241    -2.002417
 H     5.353678    -9.402933    -2.335403
 H     6.575418     5.213014    -0.580121
 O     7.217914     4.550487    -0.853773
 H     7.392964     4.009537    -0.057652
 H    -5.560189    -2.870977     5.737096
 O    -5.586041    -2.111399     6.360022
 H    -4.974615    -2.370140     7.071189
 H     2.390320     1.428577     7.567280
 O     2.857035     0.584558     7.486719
 H     2.554267     0.204117     6.635362
 H    -2.925322    -2.882823     7.005647
 O    -3.431399    -3.019438     7.835617
 H    -2.823910    -2.696700     8.517022
 H     5.576097     1.979848     6.833170
 O     5.292554     1.107829     6.552714
 H     4.398330     0.958108     6.925050
 H     1.820229    -4.387445     4.172983
 O     2.284734    -4.330936     5.020488
 H     2.983340    -5.005086     4.948724
 H     10.471755    -2.762096    -1.538872
 O     10.931926    -2.806745    -0.653842
 H     11.804472    -3.170196    -0.832301
 H     3.906251     8.281032    -2.716649
 O     3.220008     8.856105    -2.355821
 H     3.025122     8.501756    -1.468968
 H    -8.244497    -6.446558     0.200499
 O    -8.877040    -6.019444    -0.399738
 H    -8.826330    -5.071559    -0.123875
 H    -0.694495     9.690794    -3.186693
 O    -1.636622     9.858706    -2.994463
 H    -1.723079     9.972603    -2.045504
 H     4.154343     4.018271    -3.613088
 O     3.604059     4.806755    -3.645383
 H     4.163502     5.578766    -3.418909
 H     5.173227     6.582636    -1.775900
 O     5.122736     6.798679    -2.727276
 H     5.911428     6.439060    -3.154267
 H    -0.565923     5.154583     6.145732
 O     0.161612     4.676359     5.723500
 H     0.861569     5.318298     5.452986
 H     3.039509     5.528859     5.287294
 O     2.286239     5.974343     4.871700
 H     2.252897     5.648652     3.958214
 H    -7.211947     9.000567    -0.239524
 O    -6.903145     8.780327    -1.128209
 H    -6.673869     7.834690    -1.099578
 H    -1.455875    -5.047599     3.564000
 O    -0.989837    -4.954602     2.701922
 H    -0.073868    -5.221238     2.816909
 H     4.032358    -2.187880     6.358887
 O     4.052640    -2.337172     5.389328
 H     3.341099    -2.981783     5.198119
 H     6.966017    -6.201400     3.334143
 O     7.325407    -5.842656     4.155288
 H     6.851038    -5.002389     4.300251
 H     8.873113    -4.875779     4.123938
 O     9.511459    -4.147411     4.005825
 H     9.233007    -3.448076     4.609865
 H     3.190278     7.965338    -7.902657
 O     3.176394     7.424155    -7.114629
 H     2.295527     7.574877    -6.693176
 H    -0.831917    -1.353424     8.129924
 O    -1.056127    -1.991858     8.821466
 H    -0.347296    -2.641154     8.807610
 H     8.414121     4.349647    -2.098485
 O     9.052670     4.404409    -2.850506
 H     9.700619     5.039377    -2.526257
 H     6.451943     4.691438    -4.965410
 O     6.748966     5.091231    -4.127798
 H     7.693016     4.928923    -4.008866
 H     10.695946     1.516411    -3.670477
 O     9.985884     1.839048    -3.064566
 H     9.745638     2.760073    -3.268128
 H     2.911750    -2.470879     7.986122
 O     3.745522    -1.962151     8.009438
 H     3.469212    -1.036036     8.084741
 H    -2.294934    -1.927268    -8.796593
 O    -2.720450    -1.598535    -8.005699
 H    -2.025772    -1.147904    -7.478286
 H     5.022587     5.370875     1.716423
 O     4.798005     4.813825     2.472626
 H     3.826887     4.842127     2.550272
 H    -3.721020    -6.279329    -4.886881
 O    -2.910746    -5.768483    -4.948502
 H    -3.127327    -4.988910    -5.484224
 H    -6.715086     6.160037     4.861419
 O    -6.271430     6.984717     4.589892
 H    -6.118683     6.905166     3.622129
 H    -7.638775     4.125850     6.051545
 O    -7.360605     4.558793     5.234677
 H    -7.103967     3.833696     4.642099
 H    -7.349679     9.500524     2.393589
 O    -7.087912     9.895067     1.536534
 H    -7.553083     10.730468     1.480364
 H    -6.070775    -6.941349     1.597053
 O    -6.674537    -6.308044     1.178567
 H    -6.122040    -5.864149     0.499981
 H    -4.000080    -4.730078     7.578074
 O    -4.227355    -5.572139     7.144276
 H    -3.427380    -5.844295     6.679789
 H     9.499437     0.849227    -0.146269
 O     9.508193     1.815722    -0.285674
 H     9.896866     1.894086    -1.173060
 H    -8.093934    -4.200998     3.128836
 O    -7.168949    -4.467132     3.149808
 H    -7.027554    -5.105412     2.421465
 H     0.852883    -2.333635     6.961664
 O     1.343047    -3.076764     7.329889
 H     1.570406    -3.646001     6.578011
 H    -3.361910    -2.851257    -6.860833
 O    -3.789218    -3.480195    -6.260889
 H    -4.735648    -3.345808    -6.361126
 H    -8.815366     8.379842     3.768620
 O    -8.025901     8.909636     3.889109
 H    -7.357412     8.311510     4.284979
 H     8.042619    -2.238662    -4.954313
 O     7.130447    -1.958371    -5.098634
 H     6.622709    -2.568354    -4.520270
 H    -5.077335    -4.926781     5.714143
 O    -5.105791    -4.340261     4.933010
 H    -5.858509    -4.585548     4.375887
 N     11.745083     0.186974    -4.443468
 H     11.265433    -0.671026    -4.177381
 H     12.680751     0.133917    -4.050592
 H     11.846957     0.167778    -5.453918
