604
grain_mol14 // -1645.76109727117 // -45.0606043401 // -668.032824641271 // -1022.78887697 // -0.0451869614 // -0.583222250597 // -0.012407406297
 H    -1.779055     0.014102     2.493621
 O    -0.801546     0.047823     2.573226
 H    -0.521920    -0.835203     2.911594
 H    -0.396379    -1.842211    -2.817019
 O    -0.471220    -1.844621    -1.850000
 H    -1.419299    -1.752524    -1.658617
 H    -2.748217     1.884797     0.843421
 O    -2.649176     1.232367     0.129742
 H    -1.864630     1.511478    -0.376447
 H    -3.742962     1.924156    -3.028308
 O    -3.230173     2.259690    -3.800373
 H    -2.326896     2.400792    -3.498122
 H    -0.105480    -0.579715    -0.773930
 O     0.016298     0.161394    -0.149383
 H    -0.409462    -0.114111     0.672949
 H     0.955023    -1.930401    -4.743782
 O     0.017866    -2.112861    -4.563454
 H    -0.069009    -3.077925    -4.585032
 H    -4.947513     2.420404    -1.292623
 O    -4.578273     1.589451    -1.650135
 H    -3.901106     1.325621    -0.982771
 H    -3.560175     3.453437     2.463185
 O    -2.835830     2.832969     2.253134
 H    -2.064655     3.188156     2.732410
 H     2.554350     0.286092    -2.926657
 O     1.951259    -0.341374    -2.478238
 H     1.047223    -0.039001    -2.689551
 H    -1.139983     0.321977    -3.583715
 O    -0.335946     0.809374    -3.308971
 H    -0.586186     1.417663    -2.594172
 H     2.675885    -0.503595     0.595486
 O     2.583429    -1.261038    -0.018370
 H     2.320291    -0.893978    -0.883836
 H    -2.848846    -0.428499    -0.565319
 O    -2.984086    -0.906604    -1.394310
 H    -3.787425    -1.451383    -1.309361
 H     2.817550     1.309580    -0.803440
 O     1.996190     1.821572    -0.695749
 H     1.283459     1.174198    -0.510612
 H     0.559246     3.192482    -3.269435
 O     1.478208     3.015440    -3.029330
 H     1.482749     2.568667    -2.163258
 H     0.134306    -3.938996    -0.466626
 O    -0.102100    -4.636691    -1.119456
 H    -0.880599    -5.084868    -0.721681
 H    -6.250117     2.229045     3.001072
 O    -6.308591     2.447172     3.968061
 H    -7.057841     1.923715     4.314474
 H     1.151529    -3.639288     1.380619
 O     0.733850    -3.003898     0.770478
 H     1.412133    -2.348400     0.507211
 H    -2.909132     5.259137    -1.063110
 O    -2.726767     4.471634    -0.516679
 H    -3.613876     4.106013    -0.317912
 H    -5.505272    -1.196167     1.724261
 O    -5.233982    -0.572169     1.017693
 H    -5.340931    -1.046270     0.187689
 H    -0.332743    -3.092878     3.110183
 O    -0.026263    -2.274753     3.535407
 H     0.918057    -2.175706     3.329127
 H     5.247350     1.077969    -1.161746
 O     4.462094     0.551356    -0.954663
 H     4.693195     0.152661    -0.085744
 H     0.727775     2.473803     1.031001
 O     0.720336     2.152374     1.941839
 H     0.111720     1.393946     2.005407
 H     4.451952    -0.472017    -2.299382
 O     4.652319    -0.972862    -3.122291
 H     5.134449    -0.338353    -3.692385
 H     3.044577     3.306230    -1.031443
 O     3.922158     3.710276    -1.016491
 H     4.407717     3.404460    -1.806563
 H    -5.873708    -1.484168    -1.856649
 O    -5.343709    -2.175742    -1.403503
 H    -5.256356    -2.903190    -2.043464
 H    -4.906029    -3.993358     1.328178
 O    -5.595350    -3.369713     1.033583
 H    -5.365336    -3.100291     0.134114
 H     2.711182     2.149040    -3.679766
 O     3.385901     1.466117    -3.872403
 H     3.457361     1.410724    -4.830945
 H    -5.163078     3.966011     3.690971
 O    -4.592512     4.545330     3.174962
 H    -4.066971     5.090728     3.798693
 H     0.641289     0.983011    -4.726118
 O     1.131916     0.852883    -5.563488
 H     1.739033     0.103359    -5.390547
 H     1.024286     5.808363    -2.365011
 O     1.817431     5.491241    -1.900202
 H     2.372141     5.032609    -2.562008
 H    -2.781230    -3.458471    -1.712708
 O    -2.926043    -3.700876    -0.781805
 H    -3.694361    -4.287507    -0.743722
 H     2.077751     5.149511    -4.604640
 O     1.202402     5.229796    -5.021918
 H     1.191919     4.520803    -5.692784
 H     7.768865     1.894798    -0.918334
 O     6.980989     1.525187    -1.357485
 H     7.341702     0.830034    -1.944878
 H     4.502049     2.848450     0.314966
 O     4.835920     2.505887     1.168892
 H     4.763032     3.266158     1.782535
 H     1.071900    -3.154852    -2.111898
 O     1.930289    -3.007726    -2.534187
 H     2.016485    -2.032749    -2.582850
 H     1.180771     4.653186    -0.652694
 O     0.723149     4.194428     0.087969
 H     0.044418     4.808750     0.420298
 H    -5.744065     1.058193     1.241859
 O    -6.231559     1.887892     1.417400
 H    -7.163677     1.645424     1.184216
 H    -2.268336    -2.589019     0.318066
 O    -1.793246    -2.007317     0.941746
 H    -0.882936    -2.347095     0.943900
 H    -3.676713    -0.242858     4.292152
 O    -3.668982    -0.360252     5.269563
 H    -4.421981    -0.935673     5.534840
 H    -6.056877    -2.784339     3.280989
 O    -5.613915    -1.922791     3.354112
 H    -4.660787    -2.147398     3.356393
 H    -2.857237    -0.405655    -2.977273
 O    -2.595560    -0.486245    -3.921479
 H    -2.434989    -1.454104    -3.982750
 H    -3.434991    -3.412632    -3.654113
 O    -2.576832    -3.026238    -3.412764
 H    -1.882052    -3.662830    -3.674361
 H     3.225997    -1.173246    -4.234971
 O     2.673086    -1.304928    -5.028900
 H     3.305852    -1.485656    -5.742800
 H     4.674178     2.296732    -6.639371
 O     4.145155     1.473010    -6.639799
 H     3.307393     1.699266    -7.052100
 H    -4.183413     1.082353     5.783420
 O    -4.667580     1.910771     6.032150
 H    -5.232242     2.120565     5.260878
 H    -3.948040    -0.029888     2.018047
 O    -3.410265     0.295715     2.759916
 H    -3.328860     1.266346     2.663359
 H    -5.798285     0.577157    -2.237918
 O    -6.339196    -0.096669    -2.699512
 H    -5.912007    -0.203993    -3.571444
 H     1.902502    -3.827707    -4.065314
 O     1.838210    -4.294820    -4.920642
 H     1.461806    -5.166185    -4.706965
 H     4.485057    -3.515859    -0.590121
 O     4.761833    -2.755489    -0.031351
 H     3.997716    -2.133107    -0.044020
 H    -0.248228     3.056924    -0.924491
 O    -0.996556     2.671739    -1.410749
 H    -1.711999     3.330219    -1.290355
 H     1.758768     4.468825     1.516636
 O     2.212837     4.616660     2.366249
 H     2.024539     3.834523     2.908249
 H     3.705219     1.255154     1.639422
 O     2.935770     0.677108     1.808006
 H     2.162081     1.261380     1.927173
 H     3.156212    -3.935008    -2.019214
 O     3.857158    -4.553366    -1.699482
 H     4.534459    -4.572848    -2.393258
 H     4.982427    -3.784207    -4.468868
 O     5.413486    -3.455972    -3.641808
 H     5.004470    -2.597894    -3.410871
 H    -1.082901     5.129588     2.066792
 O    -1.263499     5.673179     1.264488
 H    -1.897513     5.167499     0.693565
 H    -5.690748     3.220032     0.456454
 O    -5.240900     3.713743    -0.255408
 H    -5.693758     4.566687    -0.419136
 H     5.032353    -3.763749     2.975661
 O     4.278026    -3.588737     2.406776
 H     4.609237    -3.315307     1.521433
 H     5.847068    -1.214568     1.363799
 O     5.446348    -0.322933     1.344198
 H     6.229593     0.259882     1.382747
 H     1.650390    -6.656660    -3.056804
 O     1.425033    -6.838278    -3.998246
 H     2.299865    -7.004001    -4.395059
 H    -7.194426    -3.578266     0.843582
 O    -8.162149    -3.578578     0.642930
 H    -8.621923    -3.376453     1.486930
 H     3.243085    -2.338487     2.838038
 O     2.555724    -1.669199     3.018339
 H     2.776340    -0.869606     2.507260
 H    -1.916674     2.787645     5.080947
 O    -2.635567     3.431187     5.222002
 H    -3.374493     2.930190     5.616138
 H    -0.809700     0.997339     3.995049
 O    -0.689772     1.559338     4.793154
 H     0.148408     2.013245     4.653745
 H     0.257217     3.410223    -6.954273
 O     1.212262     3.216121    -6.830846
 H     1.231077     2.371000    -6.342626
 H     7.161989    -2.729761     4.741763
 O     6.407962    -3.187831     4.300004
 H     5.601414    -2.830779     4.741470
 H     7.995258     1.570488     1.380546
 O     7.913142     0.646012     1.681424
 H     8.400060     0.083533     1.050355
 H    -4.085771    -0.509223    -4.638560
 O    -5.014826    -0.556502    -4.972418
 H    -5.004001    -0.192533    -5.878903
 H     6.447876    -1.375062    -2.155921
 O     6.860448    -1.818796    -1.410013
 H     6.131334    -2.093026    -0.822174
 H     4.713210    -0.713614     4.447811
 O     5.122078     0.026322     3.968460
 H     5.070045    -0.150909     3.004978
 H    -0.020458     3.392758     2.857016
 O    -0.650614     4.050043     3.214822
 H    -0.340120     4.321364     4.100313
 H     8.247053    -1.146608    -0.706334
 O     9.034535    -0.764438    -0.259255
 H     9.734675    -1.427834    -0.329754
 H     9.626574    -3.693965     2.180834
 O     9.328267    -3.515856     1.262775
 H     10.092163    -3.358063     0.697265
 H    -2.387067    -2.508592     3.893484
 O    -3.009956    -2.608811     3.163528
 H    -2.556120    -2.286384     2.344313
 H    -2.166007     0.748283    -6.271170
 O    -2.797017     1.493411    -6.318941
 H    -3.048815     1.687649    -5.392185
 H    -1.245120     3.825381    -5.538502
 O    -1.368812     3.778784    -6.515068
 H    -1.956573     3.013832    -6.648652
 H    -4.581761    -6.211213    -1.064130
 O    -5.055819    -5.462240    -0.674694
 H    -5.826317    -5.295175    -1.259924
 H     2.680295    -5.762101    -1.429855
 O     1.855491    -6.288539    -1.344380
 H     1.132641    -5.605030    -1.266244
 H     3.295699    -4.253239    -5.588880
 O     4.256207    -4.241783    -5.856281
 H     4.365353    -3.513117    -6.472944
 H     7.477778     3.567449     2.010388
 O     7.394708     3.199401     1.121608
 H     6.465880     2.864260     1.074890
 H     6.648775    -3.772157     0.378351
 O     7.139388    -4.583793     0.168053
 H     8.027087    -4.414797     0.539860
 H    -7.482322    -4.420118    -2.391084
 O    -7.249437    -5.345983    -2.155965
 H    -7.870206    -5.610167    -1.450085
 H    -4.395312     6.881694     4.857560
 O    -3.508080     6.546001     4.628256
 H    -3.023585     6.351469     5.445062
 H     7.267920     3.692300     4.777815
 O     7.266058     3.280336     3.903931
 H     7.522740     2.349977     4.051312
 H    -5.791161     1.016603     6.943504
 O    -6.558763     0.475745     7.242060
 H    -6.280398    -0.446906     7.118682
 H    -0.454026    -4.833579    -2.840091
 O    -0.628545    -4.749673    -3.794756
 H    -1.217597    -5.468019    -4.059219
 H     6.721624     0.378941     4.325179
 O     7.690794     0.573759     4.278329
 H     7.903277     0.518545     3.319698
 H     4.803894    -6.626348    -3.789259
 O     4.121487    -6.788295    -4.473712
 H     4.268874    -6.120805    -5.151187
 H    -5.909095    -1.907694    -5.207022
 O    -6.522458    -2.675452    -5.307474
 H    -7.377262    -2.261092    -5.593828
 H    -7.656236     0.752010     6.027285
 O    -8.220048     1.072149     5.278199
 H    -8.833453     1.702649     5.659273
 H    -5.242907     5.813168     2.230567
 O    -5.483226     6.721083     1.954497
 H    -4.627673     7.198032     1.929314
 H     5.770460     1.637155    -4.026054
 O     6.011227     0.848286    -4.558754
 H     5.516824     0.926379    -5.377055
 H    -5.887042     6.499756     0.305782
 O    -5.913784     6.261219    -0.644446
 H    -5.025455     6.497269    -0.986144
 H    -0.246570    -7.541999    -3.282218
 O    -0.954591    -7.714154    -2.635134
 H    -0.493928    -7.817556    -1.791960
 H    -2.512642    -1.479078     5.552804
 O    -1.857210    -2.201568     5.702480
 H    -1.025215    -1.728651     5.893766
 H     7.539065    -4.425211    -1.495482
 O     7.660240    -4.419577    -2.468798
 H     6.879756    -3.957828    -2.820669
 H    -8.817060    -2.943798    -3.226791
 O    -7.895373    -2.855966    -2.891527
 H    -7.352680    -2.673231    -3.673761
 H     8.837890    -3.245622    -2.869715
 O     9.467808    -2.521275    -3.073946
 H     8.963332    -1.692574    -2.988973
 H    -5.072047    -4.965188    -3.506612
 O    -5.040494    -4.000826    -3.389075
 H    -5.561922    -3.618758    -4.105942
 H    -3.672043     4.013087    -3.568814
 O    -3.385056     4.872900    -3.220650
 H    -3.675182     5.561725    -3.819883
 H    -0.269651     4.750900    -4.102399
 O    -0.923772     4.059842    -3.895055
 H    -1.708003     4.507508    -3.518450
 H    -1.920867    -3.963498     5.422559
 O    -2.211398    -4.829621     5.096037
 H    -3.145737    -4.691494     4.861038
 H    -2.443019     8.385884    -3.851584
 O    -2.643732     7.432043    -3.943820
 H    -2.445527     7.183521    -4.873623
 H    -3.007487     7.401901     3.150216
 O    -2.937239     7.584505     2.198194
 H    -2.336923     6.891704     1.854589
 H     4.809942     1.687892     4.165095
 O     4.650289     2.639932     3.985292
 H     5.522544     3.000903     3.737852
 H     7.896950    -1.591285     6.264752
 O     8.337855    -1.800342     5.418252
 H     8.290769    -0.960084     4.920828
 H     6.042294    -1.328389     7.778793
 O     6.744113    -0.807981     7.375496
 H     6.281867    -0.064139     6.928498
 H    -1.770686     5.612578    -6.531541
 O    -1.908933     6.555260    -6.351775
 H    -1.040050     6.982521    -6.456540
 H    -8.185870    -0.112890     3.975999
 O    -8.000751    -0.660283     3.199849
 H    -7.094618    -1.001764     3.304181
 H    -8.518625     0.160111     0.219172
 O    -8.550099     0.810322     0.940394
 H    -8.519247     0.278114     1.753637
 H     0.846709    -0.404454     5.920246
 O     0.014339    -0.474468     6.444014
 H    -0.491685     0.292860     6.124808
 H    -0.495610     7.042075    -1.752149
 O    -0.453483     6.643386    -2.644487
 H    -1.309800     6.832805    -3.089963
 H     0.649795    -8.052697     0.828620
 O    -0.242443    -8.353321     0.544088
 H    -0.728014    -8.381929     1.399946
 H     2.013234     2.805200     5.205676
 O     2.021951     2.509834     4.270598
 H     2.962370     2.532760     4.015485
 H    -7.967822    -5.557906    -5.411249
 O    -7.071666    -5.418255    -5.758893
 H    -6.922107    -4.464366    -5.721689
 H     3.063934    -7.435105     1.103018
 O     2.151766    -7.110223     1.115052
 H     2.053521    -6.781422     0.172890
 H     3.288194     5.643679    -7.499350
 O     3.444220     4.681080    -7.606525
 H     2.617226     4.231639    -7.373120
 H    -0.544144     7.038265     0.418032
 O    -0.242081     7.735688    -0.187959
 H    -0.919851     8.425308    -0.145445
 H     4.430491     3.798323     5.166839
 O     4.343229     4.457334     5.897454
 H     5.225316     4.528417     6.271910
 H     7.644162     2.983042     6.757222
 O     7.112810     3.818627     6.670144
 H     7.599230     4.488456     7.149393
 H     4.193203    -7.971800    -0.957672
 O     4.661475    -7.433927    -0.277138
 H     5.097730    -6.760373    -0.832015
 H     6.730169    -5.919743    -2.600843
 O     5.960676    -6.512764    -2.535221
 H     6.293906    -7.425609    -2.456968
 H    -8.986141    -2.053890     3.060603
 O    -9.467863    -2.878101     2.836979
 H    -10.207445    -2.584395     2.278182
 H    -2.710210     8.803934     0.885814
 O    -2.571830     9.146995    -0.012715
 H    -3.370504     9.702965    -0.190193
 H     8.104758     0.843884     7.335403
 O     8.442634     1.533411     6.753592
 H     8.293767     1.192334     5.854651
 H    -2.376686     5.275158     7.599366
 O    -2.098450     5.480630     6.707979
 H    -2.288222     4.665067     6.154674
 H    -6.287782    -6.423106    -3.202231
 O    -5.619285    -6.630984    -3.880531
 H    -6.061303    -6.359186    -4.714119
 H     6.796752    -2.675320     2.719955
 O     6.916956    -2.427168     1.784517
 H     7.863290    -2.507161     1.595109
 H     2.298558     6.751978    -0.934265
 O     2.551954     7.502354    -0.351081
 H     1.707450     7.841707    -0.029876
 H    -4.182504    -7.348580    -2.742450
 O    -3.604547    -7.388020    -1.971169
 H    -2.701315    -7.494292    -2.319232
 H     0.840758     6.673425    -5.730083
 O     0.664147     7.538001    -6.169000
 H     0.681073     8.182602    -5.431657
 H    -8.282186    -1.630654    -1.610752
 O    -8.573322    -1.349410    -0.729451
 H    -8.340260    -2.127947    -0.175323
 H    -3.304614     7.125435    -2.284865
 O    -3.400271     6.960691    -1.337101
 H    -3.099300     7.771830    -0.876242
 H     2.831222    -4.466052     2.397643
 O     1.917388    -4.813712     2.410951
 H     1.981036    -5.707023     2.013184
 H    -8.842333    -0.804626    -4.983450
 O    -8.753451    -1.394342    -5.768229
 H    -8.471363    -0.805331    -6.490284
 H     7.525218    -0.037546    -3.915419
 O     8.170807    -0.057209    -3.190157
 H     8.842058     0.606371    -3.402844
 H     4.191211     6.737458    -0.189918
 O     4.901453     6.101636    -0.372935
 H     4.444609     5.259166    -0.591762
 H    -7.970744     0.134456    -3.182276
 O    -8.868843     0.140686    -3.573264
 H    -9.469994    -0.082757    -2.861356
 H     6.096625     3.816851    -3.345395
 O     5.623816     3.035704    -3.003563
 H     6.214310     2.622308    -2.329620
 H    -1.306242    -6.928170     0.244162
 O    -1.911811    -6.178150     0.055301
 H    -2.511171    -6.509330    -0.629390
 H    -3.946025    -7.736560     1.141067
 O    -4.165998    -7.469763     2.036525
 H    -3.956114    -6.506222     2.085545
 H    -2.854048    -5.026267     1.272115
 O    -3.565103    -4.903289     1.920349
 H    -3.284882    -4.174172     2.511341
 H     5.278761    -6.060623     4.909978
 O     4.522001    -5.828112     4.368568
 H     4.816711    -5.934581     3.447934
 H    -9.567445    -6.239945    -3.762075
 O    -9.584463    -5.795030    -4.640385
 H    -10.225740    -6.274917    -5.164894
 H     6.288854    -5.581447     1.297076
 O     5.778906    -6.161892     1.898524
 H     5.325526    -6.764313     1.294273
 H    -1.350998    -6.659810     2.699398
 O    -1.491797    -7.620017     2.766257
 H    -2.452165    -7.744813     2.762064
 H    -10.079486    -4.085251    -4.378012
 O    -10.209768    -3.155718    -4.125500
 H    -9.980635    -2.617430    -4.895326
 H     0.426162     7.950125    -3.375320
 O     0.743245     8.778948    -3.791167
 H     1.644635     8.927769    -3.436998
 H    -9.095177    -7.967609    -2.350066
 O    -9.685086    -7.212484    -2.363981
 H    -9.566268    -6.763502    -1.507499
 H     2.080281     0.780161     4.571755
 O     2.177879    -0.062960     5.054056
 H     2.391607    -0.753394     4.391143
 H    -6.574683     0.294974    -7.572659
 O    -7.533632     0.380785    -7.444293
 H    -7.690093     1.287351    -7.177035
 H     6.206191     3.829101    -7.348630
 O     5.617873     3.777804    -6.595319
 H     4.770128     4.229372    -6.895187
 H    -5.374467     10.329708     0.497860
 O    -4.884473     10.337216    -0.335255
 H    -5.469829     9.842335    -0.941894
 H    -0.816592    -1.172030    -5.721305
 O    -0.984503    -0.528387    -6.443790
 H    -0.200569     0.052749    -6.403242
 H     4.728878    -0.501974    -6.929495
 O     4.813789    -1.431496    -6.691943
 H     5.660849    -1.523186    -6.220686
 H     2.654952    -9.319198    -2.168036
 O     3.588635    -8.996463    -2.322116
 H     3.548037    -8.419652    -3.097613
 H    -4.254631    -0.538414    -7.848391
 O    -4.765667     0.219392    -7.525454
 H    -4.087380     0.867687    -7.227333
 H     1.334353     3.900880     6.620666
 O     2.082213     3.311587     6.839765
 H     2.894135     3.835013     6.707202
 H    -11.339847    -2.622850     0.091963
 O    -10.922409    -1.978617     0.664009
 H    -10.192603    -1.592788     0.148081
 H    -7.417518     2.164430     7.593475
 O    -7.893440     3.001653     7.495623
 H    -8.011375     3.354917     8.376864
 H     6.214108    -9.004642    -0.998353
 O     6.296061    -9.146922    -1.946078
 H     5.400077    -9.362352    -2.246874
 H     6.583707     5.281902    -0.874021
 O     7.224374     4.614616    -1.140892
 H     7.417571     4.096657    -0.332882
 H    -5.356055    -2.710864     5.918465
 O    -5.371732    -1.936915     6.523452
 H    -4.742643    -2.175250     7.226352
 H     2.610146     1.671912     7.460432
 O     3.079504     0.828560     7.388999
 H     2.759444     0.426395     6.554148
 H    -2.692362    -2.678783     7.125077
 O    -3.178611    -2.798613     7.969319
 H    -2.557615    -2.456508     8.628821
 H     5.775133     2.221947     6.639609
 O     5.489444     1.342587     6.385486
 H     4.605429     1.196776     6.782781
 H     1.995846    -4.226503     4.218192
 O     2.478118    -4.147817     5.053809
 H     3.180082    -4.818735     4.981210
 H     10.428729    -2.678959    -1.744366
 O     10.927101    -2.668879    -0.881941
 H     11.855676    -2.645847    -1.106500
 H     3.847710     8.285599    -3.015926
 O     3.167230     8.865328    -2.651931
 H     2.995356     8.530949    -1.752692
 H    -8.148699    -6.430518     0.532815
 O    -8.796417    -6.021112    -0.063320
 H    -8.745287    -5.066590     0.188960
 H    -0.770246     9.659985    -3.411489
 O    -1.708614     9.826998    -3.201089
 H    -1.773476     9.963641    -2.253420
 H     4.098395     4.002384    -3.817989
 O     3.544252     4.787839    -3.855441
 H     4.104328     5.567644    -3.660142
 H     5.144693     6.616661    -2.064411
 O     5.072785     6.808625    -3.019733
 H     5.854710     6.444963    -3.454847
 H    -0.399418     5.347600     6.020392
 O     0.320763     4.863349     5.592426
 H     1.010588     5.502388     5.290855
 H     3.183048     5.719918     5.069532
 O     2.417894     6.151415     4.660928
 H     2.365337     5.803850     3.756485
 H    -7.213227     9.006674    -0.297630
 O    -6.923808     8.766746    -1.187749
 H    -6.688976     7.823211    -1.142146
 H    -1.290491    -4.917342     3.702038
 O    -0.846728    -4.850544     2.825630
 H     0.075991    -5.099355     2.927961
 H     4.244130    -1.963815     6.300249
 O     4.242119    -2.135212     5.334213
 H     3.531002    -2.788724     5.174743
 H     7.129173    -6.034312     3.302749
 O     7.506101    -5.653732     4.106393
 H     7.030195    -4.813079     4.242195
 H     9.046992    -4.680435     4.015872
 O     9.677951    -3.951294     3.866386
 H     9.409781    -3.239922     4.460801
 H     3.015582     7.841445    -8.174459
 O     3.021917     7.319247    -7.373598
 H     2.149858     7.475877    -6.936349
 H    -0.582289    -1.112271     8.163926
 O    -0.787511    -1.735868     8.874632
 H    -0.074676    -2.380768     8.860674
 H     8.342740     4.517452    -2.333503
 O     9.018649     4.530748    -3.059411
 H     9.742844     5.053076    -2.714396
 H     6.356307     4.659150    -5.238273
 O     6.678843     5.072594    -4.415728
 H     7.626443     4.918530    -4.327945
 H     10.631265     2.159939    -4.208462
 O     9.897294     2.061248    -3.604014
 H     9.514044     2.954677    -3.456513
 H     3.163228    -2.213792     7.959454
 O     3.994249    -1.700280     7.951115
 H     3.714661    -0.774053     8.011017
 H    -2.434451    -2.096784    -8.705705
 O    -2.843141    -1.752223    -7.912641
 H    -2.138780    -1.285283    -7.412881
 H     5.083105     5.488215     1.458238
 O     4.880071     4.946680     2.231418
 H     3.910913     4.971579     2.332120
 H    -3.747497    -6.360864    -4.663647
 O    -2.940811    -5.848681    -4.753025
 H    -3.170935    -5.083165    -5.303326
 H    -6.582094     6.290951     4.856354
 O    -6.149288     7.111009     4.555054
 H    -6.018997     7.009418     3.586094
 H    -7.466510     4.281027     6.115496
 O    -7.209648     4.695629     5.282298
 H    -6.962907     3.957932     4.701281
 H    -7.292769     9.568456     2.325249
 O    -7.053162     9.943641     1.453170
 H    -7.524106     10.775161     1.388035
 H    -5.939879    -6.880776     1.890811
 O    -6.556147    -6.261774     1.469803
 H    -6.022316    -5.830566     0.768760
 H    -3.743814    -4.517181     7.766316
 O    -3.976112    -5.370268     7.357248
 H    -3.184833    -5.649454     6.882243
 H     9.541485     0.896013    -0.565259
 O     9.587310     1.848308    -0.768381
 H     9.893190     1.899084    -1.680036
 H    -7.942337    -4.114367     3.402795
 O    -7.015759    -4.375909     3.408067
 H    -6.888478    -5.030174     2.691759
 H     1.080668    -2.111466     6.979902
 O     1.582609    -2.843577     7.354208
 H     1.796853    -3.428848     6.610821
 H    -3.449912    -2.980971    -6.723988
 O    -3.860607    -3.596838    -6.099183
 H    -4.809631    -3.468860    -6.181741
 H    -8.719827     8.473292     3.760677
 O    -7.930663     9.009707     3.849694
 H    -7.249842     8.424862     4.244249
 H     8.007547    -2.139677    -5.122494
 O     7.082787    -1.888447    -5.146567
 H     6.618293    -2.522311    -4.567131
 H    -4.862202    -4.763667     5.933222
 O    -4.911414    -4.197498     5.138106
 H    -5.676694    -4.458643     4.605964
 N     1.105011    -10.126020    -1.731050
 H     0.393275    -10.006343    -2.447080
 H     0.681957    -9.820074    -0.854830
 H     1.283685    -11.122352    -1.648023
