604
grain_mol99 // -1645.759276985431 // -45.0409606812 // -668.016672886631 // -1022.78356478 // -0.0379819977 // -0.583888060904 // -0.010524245826
 H    -1.871773    -0.122022     2.472149
 O    -0.896032    -0.109902     2.576522
 H    -0.640908    -1.012252     2.882248
 H    -0.394633    -1.773600    -2.879819
 O    -0.491707    -1.817238    -1.915939
 H    -1.442350    -1.716236    -1.741917
 H    -2.766593     1.836062     0.882465
 O    -2.661987     1.213507     0.143421
 H    -1.860261     1.498708    -0.331277
 H    -3.665742     2.060732    -3.006554
 O    -3.128229     2.419768    -3.750944
 H    -2.230219     2.529796    -3.421341
 H    -0.130315    -0.606838    -0.777240
 O    -0.009769     0.104185    -0.118442
 H    -0.461148    -0.198003     0.680599
 H     1.002944    -1.805021    -4.776281
 O     0.058545    -1.977687    -4.626821
 H    -0.047263    -2.938808    -4.690287
 H    -4.903023     2.504713    -1.279578
 O    -4.539779     1.683545    -1.664625
 H    -3.884432     1.377648    -0.993368
 H    -3.589582     3.348962     2.549047
 O    -2.871395     2.724867     2.329134
 H    -2.106059     3.043926     2.841894
 H     2.596470     0.300003    -2.828099
 O     1.972029    -0.335913    -2.421481
 H     1.078921    -0.006930    -2.639445
 H    -1.079342     0.434618    -3.568727
 O    -0.273389     0.894233    -3.254401
 H    -0.529829     1.475927    -2.519953
 H     2.618333    -0.642055     0.658964
 O     2.528924    -1.370459     0.010358
 H     2.292001    -0.961288    -0.843911
 H    -2.874127    -0.413118    -0.627412
 O    -2.997977    -0.850438    -1.480297
 H    -3.811759    -1.384886    -1.437600
 H     2.826368     1.226743    -0.656618
 O     2.011799     1.748683    -0.545679
 H     1.283337     1.107546    -0.405631
 H     0.662456     3.256205    -3.089891
 O     1.572155     3.052411    -2.836672
 H     1.548366     2.568269    -1.991306
 H     0.043384    -3.982346    -0.611413
 O    -0.183196    -4.648686    -1.298978
 H    -0.982672    -5.098574    -0.941813
 H    -6.313464     2.153703     2.969548
 O    -6.391697     2.331668     3.943397
 H    -7.158166     1.807737     4.249109
 H     1.017139    -3.778274     1.271974
 O     0.628280    -3.109541     0.679045
 H     1.324354    -2.456354     0.461843
 H    -2.820409     5.291651    -0.878907
 O    -2.665499     4.478150    -0.363068
 H    -3.563569     4.121076    -0.201205
 H    -5.599071    -1.227085     1.563246
 O    -5.299907    -0.578087     0.891161
 H    -5.394364    -1.014720     0.039289
 H    -0.498186    -3.279981     2.989231
 O    -0.186553    -2.485396     3.454808
 H     0.763910    -2.396994     3.274961
 H     5.258758     0.965117    -0.967844
 O     4.460416     0.443543    -0.801933
 H     4.662898     0.005464     0.054782
 H     0.713807     2.350158     1.177527
 O     0.678551     1.989947     2.073079
 H     0.054705     1.241332     2.089374
 H     4.464200    -0.521063    -2.190079
 O     4.677507    -0.990790    -3.027958
 H     5.182163    -0.338824    -3.559086
 H     3.095221     3.226696    -0.792889
 O     3.979372     3.612309    -0.738127
 H     4.479202     3.333460    -1.529866
 H    -5.885657    -1.353860    -2.034932
 O    -5.378693    -2.073362    -1.599915
 H    -5.289064    -2.775263    -2.267559
 H    -5.041385    -4.015354     1.061034
 O    -5.711673    -3.365733     0.777361
 H    -5.454317    -3.064375    -0.104286
 H     2.806629     2.190165    -3.496355
 O     3.469593     1.499903    -3.700486
 H     3.569419     1.485657    -4.658992
 H    -5.212573     3.838344     3.759602
 O    -4.619368     4.428759     3.283151
 H    -4.099315     4.936242     3.942380
 H     0.741079     1.110471    -4.638938
 O     1.247102     1.006080    -5.470732
 H     1.839719     0.241419    -5.315582
 H     1.153579     5.821161    -2.062768
 O     1.928973     5.469630    -1.593070
 H     2.492426     5.029715    -2.260421
 H    -2.834185    -3.390737    -1.904781
 O    -3.009712    -3.662847    -0.988067
 H    -3.784241    -4.242751    -0.992363
 H     2.248909     5.238816    -4.302748
 O     1.386391     5.354144    -4.738859
 H     1.380177     4.674051    -5.438903
 H     7.788876     1.722201    -0.627999
 O     7.005665     1.384343    -1.099649
 H     7.368406     0.711179    -1.710372
 H     4.510615     2.683846     0.567290
 O     4.816912     2.298352     1.413468
 H     4.742873     3.033103     2.057342
 H     1.033551    -3.144647    -2.197263
 O     1.904259    -2.996088    -2.594158
 H     2.009008    -2.021247    -2.597840
 H     1.247078     4.590814    -0.398776
 O     0.763061     4.109605     0.310200
 H     0.087677     4.721932     0.652720
 H    -5.785769     1.050002     1.173836
 O    -6.262256     1.880827     1.373359
 H    -7.192669     1.666051     1.108112
 H    -2.355250    -2.619449     0.175704
 O    -1.884131    -2.073088     0.833682
 H    -0.981323    -2.431921     0.843377
 H    -3.817098    -0.420364     4.212593
 O    -3.835562    -0.578841     5.184053
 H    -4.604662    -1.151376     5.406160
 H    -6.217191    -2.869728     3.035638
 O    -5.761140    -2.020478     3.157171
 H    -4.812477    -2.263110     3.171740
 H    -2.823469    -0.285732    -3.035688
 O    -2.540128    -0.330331    -3.976206
 H    -2.396184    -1.297766    -4.075485
 H    -3.438195    -3.249926    -3.854883
 O    -2.578021    -2.889841    -3.581118
 H    -1.890345    -3.530154    -3.850831
 H     3.273521    -1.111923    -4.182087
 O     2.738070    -1.204755    -4.993223
 H     3.386179    -1.358160    -5.699812
 H     4.557045     2.440860    -6.336033
 O     4.111143     1.559635    -6.422877
 H     3.269739     1.746028    -6.859237
 H    -4.336368     0.849251     5.747496
 O    -4.811145     1.675663     6.020477
 H    -5.353148     1.928856     5.246008
 H    -4.028977    -0.104706     1.944222
 O    -3.503636     0.179119     2.711812
 H    -3.402883     1.151152     2.659214
 H    -5.763512     0.720528    -2.323850
 O    -6.305549     0.078522    -2.827422
 H    -5.858736    -0.000184    -3.692419
 H     1.896224    -3.748738    -4.155670
 O     1.851999    -4.183366    -5.029920
 H     1.431402    -5.043675    -4.869841
 H     4.400084    -3.633570    -0.612656
 O     4.677546    -2.903994    -0.015765
 H     3.925304    -2.266279    -0.018890
 H    -0.203432     3.035352    -0.773517
 O    -0.946399     2.686155    -1.293967
 H    -1.652872     3.351851    -1.161209
 H     1.768454     4.302674     1.773397
 O     2.203862     4.405277     2.639303
 H     1.988389     3.604159     3.141997
 H     3.652808     1.050862     1.802087
 O     2.869708     0.480081     1.927385
 H     2.103548     1.072933     2.053418
 H     3.098443    -3.965546    -2.088566
 O     3.781368    -4.612560    -1.784283
 H     4.476529    -4.602844    -2.460921
 H     4.988440    -3.742754    -4.486995
 O     5.401908    -3.463499    -3.633821
 H     5.008019    -2.604442    -3.377654
 H    -1.073486     4.993132     2.284534
 O    -1.224901     5.574185     1.502665
 H    -1.853633     5.105390     0.895558
 H    -5.674311     3.241908     0.484404
 O    -5.198377     3.757738    -0.194180
 H    -5.632151     4.625020    -0.331317
 H     4.857616    -4.043181     2.952112
 O     4.121203    -3.834564     2.371249
 H     4.478550    -3.525756     1.508231
 H     5.756733    -1.445644     1.471048
 O     5.372578    -0.546856     1.480424
 H     6.164456     0.019614     1.562611
 H     1.541757    -6.629448    -3.180549
 O     1.379062    -6.815545    -4.130471
 H     2.262043    -6.891480    -4.521141
 H    -7.308570    -3.536619     0.540065
 O    -8.271213    -3.509023     0.316805
 H    -8.747485    -3.335768     1.157898
 H     3.097407    -2.582223     2.832302
 O     2.418726    -1.908181     3.025354
 H     2.665541    -1.091462     2.554900
 H    -2.022781     2.539883     5.173600
 O    -2.733071     3.190472     5.325643
 H    -3.490424     2.686969     5.679779
 H    -0.922094     0.777001     4.037383
 O    -0.811470     1.302061     4.861715
 H     0.037889     1.745425     4.761850
 H     0.449194     3.636233    -6.766816
 O     1.397974     3.418695    -6.635448
 H     1.394697     2.554986    -6.180351
 H     6.960686    -3.129348     4.809558
 O     6.209715    -3.553913     4.330301
 H     5.399028    -3.200887     4.768204
 H     7.952152     1.295242     1.659876
 O     7.847044     0.359912     1.917899
 H     8.339260    -0.182858     1.274188
 H    -4.012628    -0.294169    -4.728229
 O    -4.933880    -0.308810    -5.085952
 H    -4.894457     0.093277    -5.975158
 H     6.440800    -1.462140    -2.036033
 O     6.826039    -1.954185    -1.305712
 H     6.077961    -2.233248    -0.744612
 H     4.556130    -1.056217     4.546032
 O     4.990661    -0.304736     4.109062
 H     4.958067    -0.438574     3.137836
 H    -0.062191     3.203876     3.023388
 O    -0.688693     3.857357     3.394374
 H    -0.395296     4.084060     4.298011
 H     8.206640    -1.335314    -0.538441
 O     8.989236    -0.988752    -0.055490
 H     9.679554    -1.660719    -0.138757
 H     9.468591    -4.030219     2.268128
 O     9.196336    -3.809821     1.350975
 H     9.976799    -3.639209     0.812447
 H    -2.558324    -2.690392     3.746407
 O    -3.166040    -2.744357     2.999197
 H    -2.686270    -2.398396     2.204844
 H    -2.031353     0.995623    -6.258854
 O    -2.647154     1.754313    -6.289251
 H    -2.918422     1.912885    -5.361068
 H    -1.074068     4.020901    -5.371568
 O    -1.175877     4.018841    -6.352040
 H    -1.773284     3.270871    -6.531753
 H    -4.698904    -6.133979    -1.415673
 O    -5.168776    -5.391693    -1.006904
 H    -5.920895    -5.186969    -1.603146
 H     2.593084    -5.788405    -1.585365
 O     1.777994    -6.327574    -1.535333
 H     1.021118    -5.689685    -1.420289
 H     3.323030    -4.132783    -5.665617
 O     4.288895    -4.133387    -5.910536
 H     4.428576    -3.377990    -6.488127
 H     7.455934     3.272400     2.363468
 O     7.388697     2.943007     1.458385
 H     6.454976     2.629521     1.374022
 H     6.536034    -3.973289     0.394991
 O     7.016251    -4.784837     0.160127
 H     7.897520    -4.648575     0.560604
 H    -7.533533    -4.232210    -2.733257
 O    -7.323696    -5.171798    -2.535199
 H    -7.964575    -5.454844    -1.855152
 H    -4.421099     6.686156     5.069903
 O    -3.534564     6.344275     4.847212
 H    -3.073885     6.105126     5.665964
 H     7.180941     3.281997     5.127701
 O     7.193269     2.908069     4.236968
 H     7.429548     1.967643     4.349667
 H    -5.972634     0.764253     6.865477
 O    -6.756908     0.225912     7.122198
 H    -6.492361    -0.695762     6.965084
 H    -0.505665    -4.764938    -3.030558
 O    -0.649891    -4.637051    -3.985851
 H    -1.247730    -5.330325    -4.293917
 H     6.586694     0.002010     4.518440
 O     7.560276     0.179227     4.503022
 H     7.794825     0.162680     3.548086
 H     4.769233    -6.582860    -3.938756
 O     4.089092    -6.729695    -4.631065
 H     4.239652    -6.042638    -5.288835
 H    -5.846507    -1.631796    -5.399843
 O    -6.470814    -2.382471    -5.548893
 H    -7.310926    -1.940142    -5.836497
 H    -7.819228     0.574902     5.894846
 O    -8.358646     0.938076     5.147436
 H    -8.969853     1.562908     5.541107
 H    -5.223454     5.747927     2.379735
 O    -5.440510     6.671320     2.137619
 H    -4.576131     7.132455     2.153496
 H     5.896806     1.668274    -3.807271
 O     6.077718     0.873501    -4.366067
 H     5.446455     0.974147    -5.092022
 H    -5.807926     6.528699     0.471930
 O    -5.815841     6.332389    -0.488271
 H    -4.915170     6.565446    -0.798080
 H    -0.329696    -7.345598    -3.340267
 O    -1.046705    -7.479178    -2.709492
 H    -0.672745    -7.854919    -1.903798
 H    -2.706659    -1.731048     5.445389
 O    -2.068063    -2.471348     5.579835
 H    -1.232575    -2.023032     5.810294
 H     7.459905    -4.561041    -1.483626
 O     7.599508    -4.524369    -2.454164
 H     6.842111    -4.022457    -2.802070
 H    -8.820233    -2.696196    -3.536005
 O    -7.905767    -2.639041    -3.175555
 H    -7.340587    -2.434956    -3.936181
 H     8.812269    -3.348303    -2.776015
 O     9.459262    -2.628801    -2.933821
 H     8.968703    -1.793907    -2.826192
 H    -5.106205    -4.775486    -3.813523
 O    -5.058823    -3.817287    -3.655296
 H    -5.556860    -3.395824    -4.366524
 H    -3.543977     4.169151    -3.453198
 O    -3.249923     5.007884    -3.062010
 H    -3.513869     5.726958    -3.637268
 H    -0.116550     4.864621    -3.874147
 O    -0.788514     4.178221    -3.714008
 H    -1.573224     4.623665    -3.335734
 H    -2.157226    -4.218081     5.221407
 O    -2.455012    -5.064207     4.852041
 H    -3.380206    -4.898754     4.599326
 H    -2.230077     8.526203    -3.517082
 O    -2.445980     7.581355    -3.655753
 H    -2.229482     7.369265    -4.590340
 H    -2.982934     7.252894     3.419856
 O    -2.886006     7.475044     2.478628
 H    -2.290206     6.786134     2.119575
 H     4.703358     1.352965     4.370258
 O     4.565290     2.314628     4.228234
 H     5.449439     2.669495     4.016943
 H     7.678619    -2.072371     6.397345
 O     8.136076    -2.253166     5.553018
 H     8.116232    -1.391107     5.092157
 H     5.792644    -1.839070     7.877325
 O     6.513483    -1.315700     7.513261
 H     6.075738    -0.544304     7.088712
 H    -1.542545     5.858269    -6.297698
 O    -1.667806     6.795309    -6.082311
 H    -0.788735     7.209441    -6.146159
 H    -8.313955    -0.190944     3.796140
 O    -8.119920    -0.707207     3.001151
 H    -7.223094    -1.070851     3.111755
 H    -8.550067     0.249786     0.047884
 O    -8.587500     0.869143     0.795577
 H    -8.585975     0.301907     1.585438
 H     0.661587    -0.737127     5.938504
 O    -0.184057    -0.813384     6.439409
 H    -0.668776    -0.024084     6.141398
 H    -0.358617     7.056257    -1.432731
 O    -0.302068     6.696349    -2.340692
 H    -1.144207     6.920329    -2.796780
 H     0.422655    -8.055651     0.397476
 O    -0.481533    -8.282307     0.131353
 H    -0.952980    -8.362709     0.988838
 H     1.902548     2.477263     5.391817
 O     1.928877     2.222301     4.445279
 H     2.875431     2.238496     4.213574
 H    -7.965239    -5.229393    -5.811262
 O    -7.059496    -5.090843    -6.133589
 H    -6.893322    -4.142844    -6.048844
 H     2.877314    -7.661076     0.943958
 O     1.997254    -7.280292     0.890124
 H     1.940191    -6.918170    -0.031471
 H     3.579249     5.838980    -7.231332
 O     3.737247     4.883604    -7.407289
 H     2.887295     4.461421    -7.189697
 H    -0.460532     6.960137     0.733350
 O    -0.131640     7.677125     0.165281
 H    -0.797626     8.377076     0.222227
 H     4.337428     3.425301     5.453237
 O     4.244369     4.053706     6.209628
 H     5.118209     4.091828     6.607438
 H     7.496264     2.481194     7.082399
 O     6.982259     3.329607     7.019221
 H     7.468767     3.969022     7.538267
 H     3.923926    -8.044456    -1.133121
 O     4.436805    -7.535836    -0.483774
 H     4.901507    -6.880956    -1.029661
 H     6.652201    -5.982490    -2.670065
 O     5.874495    -6.571120    -2.654619
 H     6.197573    -7.488677    -2.604730
 H    -9.126609    -2.074872     2.778317
 O    -9.618101    -2.879064     2.508183
 H    -10.337891    -2.547480     1.944801
 H    -2.605230     8.744949     1.226268
 O    -2.438875     9.123940     0.347089
 H    -3.223025     9.701895     0.175258
 H     7.903862     0.310765     7.577741
 O     8.268574     1.017878     7.034525
 H     8.135256     0.718818     6.118360
 H    -2.499343     4.925089     7.786101
 O    -2.195733     5.163439     6.911332
 H    -2.386585     4.376058     6.318778
 H    -6.353595    -6.222507    -3.604183
 O    -5.673508    -6.409726    -4.276725
 H    -6.091740    -6.094601    -5.106979
 H     6.645916    -2.981029     2.784181
 O     6.793074    -2.698107     1.862408
 H     7.742758    -2.783727     1.693727
 H     2.408980     6.678354    -0.562536
 O     2.660942     7.398673     0.058023
 H     1.814970     7.739222     0.373925
 H    -4.276088    -7.207084    -3.139368
 O    -3.732233    -7.281881    -2.346830
 H    -2.817141    -7.408270    -2.656019
 H     1.067818     6.833580    -5.389739
 O     0.918278     7.719835    -5.794639
 H     0.928105     8.331326    -5.029201
 H    -8.301376    -1.464825    -1.851709
 O    -8.608984    -1.215979    -0.966246
 H    -8.403288    -2.022006    -0.441040
 H    -3.152263     7.216133    -2.027375
 O    -3.273768     7.012700    -1.090211
 H    -2.969621     7.797321    -0.587472
 H     2.658742    -4.681185     2.290435
 O     1.738436    -5.009742     2.267518
 H     1.790802    -5.889529     1.840374
 H    -8.764144    -0.483731    -5.197717
 O    -8.666884    -1.040417    -6.005361
 H    -8.356625    -0.426428    -6.694163
 H     7.665242    -0.063045    -3.734709
 O     8.276522    -0.103900    -2.978923
 H     8.976267     0.543504    -3.176190
 H     4.282104     6.595879     0.224844
 O     4.984974     5.954621     0.033184
 H     4.518879     5.131599    -0.234649
 H    -7.919943     0.360086    -3.337867
 O    -8.808024     0.401009    -3.749288
 H    -9.430048     0.157064    -3.062454
 H     6.211011     3.779805    -3.008939
 O     5.715460     2.994122    -2.710060
 H     6.282926     2.541722    -2.042969
 H    -1.484254    -6.908998    -0.081882
 O    -2.083786    -6.153352    -0.249129
 H    -2.666961    -6.430086    -0.962542
 H    -4.140750    -7.767125     0.735093
 O    -4.383839    -7.531648     1.633503
 H    -4.155429    -6.576029     1.728472
 H    -3.009576    -5.085649     1.007884
 O    -3.733667    -4.973266     1.645038
 H    -3.451906    -4.277134     2.272752
 H     5.014133    -6.428086     4.789788
 O     4.275566    -6.158536     4.240526
 H     4.590730    -6.229616     3.323871
 H    -9.615975    -5.952079    -4.231128
 O    -9.604295    -5.469173    -5.089385
 H    -10.240186    -5.914907    -5.649375
 H     6.121439    -5.812688     1.221405
 O     5.586382    -6.410388     1.783472
 H     5.135764    -6.977273     1.146315
 H    -1.570443    -6.805810     2.394008
 O    -1.728313    -7.764705     2.419214
 H    -2.690147    -7.872124     2.388887
 H    -10.074392    -3.763748    -4.764486
 O    -10.194361    -2.843319    -4.475843
 H    -9.936205    -2.277482    -5.216105
 H     0.618280     8.015901    -2.992607
 O     0.960780     8.855251    -3.365214
 H     1.855811     8.971224    -2.983253
 H    -9.209517    -7.747138    -2.885873
 O    -9.785657    -6.981297    -2.880351
 H    -9.679011    -6.572187    -2.002516
 H     1.948591     0.480580     4.672228
 O     2.020064    -0.384131     5.119656
 H     2.236280    -1.049453     4.432464
 H    -6.414350     0.682956    -7.682573
 O    -7.374496     0.781663    -7.574279
 H    -7.521283     1.678196    -7.270234
 H     6.306593     3.440326    -6.556040
 O     5.591975     3.789156    -5.968474
 H     4.995064     4.355533    -6.527109
 H    -5.231248     10.336527     0.842263
 O    -4.721281     10.370654     0.021883
 H    -5.300577     9.913177    -0.619013
 H    -0.731951    -0.971112    -5.761548
 O    -0.868757    -0.294726    -6.460110
 H    -0.075868     0.269467    -6.373460
 H     4.849052    -0.412993    -6.923219
 O     4.900543    -1.354036    -6.698924
 H     5.795146    -1.497110    -6.331465
 H     2.405350    -8.829269    -2.766026
 O     3.362908    -8.774683    -2.738613
 H     3.616606    -8.173086    -3.454205
 H    -4.103903    -0.181997    -7.939349
 O    -4.608501     0.571604    -7.597090
 H    -3.926079     1.192682    -7.254045
 H     1.209141     3.523758     6.836603
 O     1.940801     2.911603     7.047675
 H     2.764896     3.424792     6.957030
 H    -11.416543    -2.471573    -0.266334
 O    -11.002705    -1.858938     0.341926
 H    -10.252880    -1.466513    -0.139216
 H    -7.593654     1.913911     7.525828
 O    -8.051635     2.763691     7.453714
 H    -8.184631     3.080390     8.346624
 H     6.034216    -9.136517    -1.214320
 O     6.136627    -9.232942    -2.166122
 H     5.255225    -9.435722    -2.503756
 H     6.663422     5.126177    -0.464987
 O     7.299081     4.459092    -0.743824
 H     7.462758     3.903527     0.045074
 H    -5.579948    -2.922980     5.689959
 O    -5.596358    -2.175393     6.327545
 H    -4.989085    -2.456005     7.033966
 H     2.423847     1.236885     7.608700
 O     2.879942     0.388812     7.511646
 H     2.572737     0.028966     6.652972
 H    -2.946434    -2.993720     6.959496
 O    -3.454961    -3.140002     7.786293
 H    -2.843981    -2.838608     8.474314
 H     5.617142     1.761380     6.887481
 O     5.322342     0.899134     6.588971
 H     4.426153     0.753365     6.958230
 H     1.781508    -4.503580     4.100301
 O     2.246124    -4.469343     4.948942
 H     2.935888    -5.151081     4.864668
 H     10.386086    -2.861412    -1.589455
 O     10.862506    -2.900651    -0.715898
 H     11.796782    -2.881203    -0.916026
 H     4.036489     8.269607    -2.538228
 O     3.357004     8.846154    -2.166910
 H     3.157154     8.477281    -1.287100
 H    -8.305783    -6.354249     0.082789
 O    -8.932140    -5.907240    -0.509389
 H    -8.869544    -4.965724    -0.214835
 H    -0.545484     9.747931    -2.982421
 O    -1.485603     9.923891    -2.787809
 H    -1.571746     10.020417    -1.836886
 H     4.228433     4.022074    -3.525214
 O     3.688769     4.818729    -3.535604
 H     4.259535     5.577837    -3.293908
 H     5.280207     6.536952    -1.632766
 O     5.233392     6.772687    -2.579095
 H     6.017065     6.409354    -3.013701
 H    -0.483121     5.027708     6.258968
 O     0.238648     4.548792     5.827672
 H     0.946839     5.187040     5.570324
 H     3.127600     5.372599     5.409922
 O     2.380594     5.835811     5.002506
 H     2.343819     5.528385     4.082854
 H    -7.073708     9.084105    -0.053214
 O    -6.766898     8.877311    -0.945821
 H    -6.550143     7.928353    -0.935569
 H    -1.502496    -5.109167     3.476710
 O    -1.034317    -5.004951     2.617052
 H    -0.122170    -5.286233     2.727338
 H     4.020183    -2.375978     6.330250
 O     4.039394    -2.506417     5.357911
 H     3.319697    -3.137872     5.153678
 H     6.904026    -6.367376     3.228814
 O     7.267570    -6.029027     4.056741
 H     6.803726    -5.185900     4.218005
 H     8.827811    -5.082168     4.045234
 O     9.474891    -4.359410     3.941087
 H     9.205799    -3.669127     4.559580
 H     3.317334     8.078847    -7.723336
 O     3.294306     7.507240    -6.957437
 H     2.418735     7.662495    -6.526636
 H    -0.834321    -1.513742     8.114754
 O    -1.067462    -2.162745     8.793366
 H    -0.366969    -2.820657     8.767463
 H     8.444714     4.391018    -1.914008
 O     9.143141     4.418878    -2.617338
 H     9.864469     4.916378    -2.232444
 H     6.478094     4.703238    -4.792238
 O     6.838231     5.083697    -3.952511
 H     7.798741     4.977121    -3.961298
 H     10.903808     2.197073    -3.692916
 O     10.099353     2.006475    -3.200868
 H     9.682123     2.890661    -3.048038
 H     2.894813    -2.676531     7.950950
 O     3.735002    -2.179040     7.984429
 H     3.470520    -1.251169     8.078219
 H    -2.291156    -1.737168    -8.820358
 O    -2.713043    -1.417322    -8.023903
 H    -2.012814    -0.986702    -7.487085
 H     5.110823     5.259763     1.837442
 O     4.879376     4.689978     2.581987
 H     3.908647     4.728968     2.660490
 H    -3.776216    -6.145651    -4.997820
 O    -2.959478    -5.644036    -5.049022
 H    -3.165693    -4.851429    -5.569457
 H    -6.617484     6.137683     4.991379
 O    -6.162957     6.961689     4.736240
 H    -6.010754     6.899219     3.767172
 H    -7.568308     4.092762     6.140701
 O    -7.283821     4.537931     5.332620
 H    -7.036271     3.821269     4.726094
 H    -7.207062     9.533902     2.589010
 O    -6.939480     9.941818     1.740034
 H    -7.393855     10.784069     1.700083
 H    -6.139730    -6.904362     1.470587
 O    -6.734849    -6.255157     1.064265
 H    -6.176100    -5.805274     0.394820
 H    -4.045433    -4.837846     7.494986
 O    -4.283236    -5.668106     7.044417
 H    -3.486375    -5.941607     6.575406
 H     9.534478     0.675411    -0.277684
 O     9.602540     1.634525    -0.436048
 H     9.930538     1.721137    -1.337360
 H    -8.128529    -4.168736     3.054865
 O    -7.207010    -4.446954     3.070920
 H    -7.073357    -5.072734     2.330370
 H     0.838415    -2.492599     6.928368
 O     1.318962    -3.248918     7.282122
 H     1.539367    -3.806282     6.519363
 H    -3.371713    -2.684162    -6.904029
 O    -3.807370    -3.319206    -6.316707
 H    -4.751973    -3.171016    -6.414710
 H    -8.688192     8.405490     3.941343
 O    -7.891935     8.922506     4.072193
 H    -7.231591     8.308276     4.456877
 H     8.059623    -2.321847    -5.079673
 O     7.157102    -1.983904    -5.111722
 H     6.655254    -2.604881    -4.541027
 H    -5.123535    -4.983915     5.626926
 O    -5.143831    -4.381885     4.857405
 H    -5.899235    -4.606482     4.295218
 N     7.678459     2.226412    -6.979554
 H     7.492625     1.646151    -7.791190
 H     7.654466     1.629426    -6.155211
 H     8.618614     2.593642    -7.077748
