604
grain_mol57 // -2002.529670393105 // -70.4550158957 // -1050.202511528805 // -1022.78217476 // -0.0696158357 // -0.584539338031 // -0.019871384927
 H    -1.774515    -0.085581     2.430278
 O    -0.797417    -0.067739     2.496296
 H    -0.527608    -0.955814     2.830303
 H    -0.385839    -1.833621    -2.911661
 O    -0.463370    -1.857871    -1.945454
 H    -1.411319    -1.763340    -1.754341
 H    -2.725115     1.829826     0.819594
 O    -2.631269     1.194224     0.090534
 H    -1.839250     1.473679    -0.403459
 H    -3.701989     1.960543    -3.056809
 O    -3.183079     2.310247    -3.818521
 H    -2.280135     2.436626    -3.508824
 H    -0.094987    -0.619284    -0.837327
 O     0.028946     0.111010    -0.201182
 H    -0.396162    -0.177066     0.618427
 H     0.976288    -1.890625    -4.832914
 O     0.036860    -2.069961    -4.662567
 H    -0.059357    -3.033404    -4.702605
 H    -4.911242     2.428139    -1.316898
 O    -4.546564     1.602586    -1.690421
 H    -3.874129     1.319114    -1.025952
 H    -3.531910     3.369604     2.466072
 O    -2.812882     2.745426     2.251896
 H    -2.039837     3.083187     2.741918
 H     2.581967     0.274932    -2.960009
 O     1.972856    -0.359731    -2.530543
 H     1.071671    -0.045110    -2.736601
 H    -1.108135     0.351858    -3.633752
 O    -0.301644     0.827610    -3.345746
 H    -0.550525     1.421090    -2.618027
 H     2.680432    -0.593392     0.545992
 O     2.588575    -1.335295    -0.087043
 H     2.329407    -0.946694    -0.944074
 H    -2.835335    -0.453785    -0.640075
 O    -2.972515    -0.908062    -1.481994
 H    -3.777931    -1.451943    -1.411431
 H     2.842136     1.248814    -0.813469
 O     2.024243     1.765032    -0.701391
 H     1.305246     1.119726    -0.530773
 H     0.610427     3.201946    -3.249157
 O     1.527140     3.013374    -3.009234
 H     1.524408     2.547986    -2.152779
 H     0.122173    -3.987991    -0.605059
 O    -0.110753    -4.671081    -1.274343
 H    -0.897707    -5.121797    -0.891564
 H    -6.240016     2.156627     2.955848
 O    -6.312289     2.361615     3.926413
 H    -7.060694     1.826940     4.256470
 H     1.127380    -3.731357     1.254446
 O     0.720106    -3.081675     0.652458
 H     1.403937    -2.424091     0.411756
 H    -2.853767     5.245697    -1.015878
 O    -2.679866     4.445932    -0.484872
 H    -3.570229     4.081791    -0.299219
 H    -5.509391    -1.250155     1.618320
 O    -5.231546    -0.610658     0.928618
 H    -5.335690    -1.065571     0.087372
 H    -0.356865    -3.217935     2.984413
 O    -0.052606    -2.407636     3.425535
 H     0.895695    -2.310507     3.239774
 H     5.272218     1.008719    -1.165364
 O     4.483080     0.481599    -0.975537
 H     4.705407     0.063765    -0.113152
 H     0.749223     2.385615     1.035908
 O     0.737973     2.047315     1.940262
 H     0.123379     1.291804     1.990302
 H     4.471352    -0.511839    -2.340594
 O     4.673427    -0.996201    -3.173420
 H     5.161359    -0.351553    -3.727066
 H     3.084984     3.248514    -0.996051
 O     3.965131     3.646699    -0.969801
 H     4.451761     3.353932    -1.763901
 H    -5.863542    -1.456420    -1.969962
 O    -5.341109    -2.160772    -1.528576
 H    -5.255094    -2.875718    -2.182748
 H    -4.929876    -4.040552     1.165908
 O    -5.613002    -3.404140     0.882172
 H    -5.376194    -3.119702    -0.010865
 H     2.756572     2.152067    -3.671350
 O     3.427552     1.468861    -3.876528
 H     3.502579     1.434767    -4.835729
 H    -5.142397     3.870844     3.696853
 O    -4.560228     4.453575     3.198738
 H    -4.036708     4.986511     3.834894
 H     0.683172     1.024745    -4.753131
 O     1.177482     0.909235    -5.590720
 H     1.777661     0.151571    -5.431097
 H     1.090082     5.794567    -2.286341
 O     1.878891     5.462322    -1.824850
 H     2.433045     5.013095    -2.493415
 H    -2.786968    -3.456412    -1.856365
 O    -2.942803    -3.710584    -0.931034
 H    -3.709962    -4.299616    -0.908080
 H     2.149570     5.176904    -4.534165
 O     1.277063     5.272894    -4.954041
 H     1.264589     4.578583    -5.640011
 H     7.798140     1.801869    -0.891074
 O     7.010558     1.447121    -1.342763
 H     7.369497     0.762494    -1.942971
 H     4.532519     2.752521     0.346015
 O     4.861389     2.388680     1.192943
 H     4.789215     3.134568     1.824077
 H     1.071792    -3.173625    -2.226456
 O     1.932469    -3.023696    -2.644385
 H     2.025779    -2.048191    -2.669460
 H     1.229227     4.601448    -0.598848
 O     0.763944     4.129777     0.128526
 H     0.089191     4.741829     0.471963
 H    -5.729845     1.015747     1.184884
 O    -6.212937     1.845171     1.375808
 H    -7.145489     1.614027     1.131511
 H    -2.277172    -2.638393     0.197519
 O    -1.802713    -2.071241     0.834772
 H    -0.894446    -2.416185     0.837082
 H    -3.743576    -0.371164     4.207855
 O    -3.778666    -0.488487     5.188325
 H    -4.514932    -1.114964     5.394783
 H    -6.079570    -2.865601     3.138254
 O    -5.631985    -2.008860     3.237061
 H    -4.679837    -2.240116     3.232642
 H    -2.833400    -0.376030    -3.051957
 O    -2.567592    -0.437661    -3.996616
 H    -2.414508    -1.405382    -4.078042
 H    -3.429395    -3.363976    -3.796507
 O    -2.568536    -2.988316    -3.547047
 H    -1.878589    -3.626772    -3.815543
 H     3.249260    -1.159999    -4.296614
 O     2.700473    -1.273554    -5.096170
 H     3.336127    -1.439620    -5.810898
 H     4.735333     2.349824    -6.618324
 O     4.200686     1.529943    -6.639833
 H     3.366279     1.771852    -7.050139
 H    -4.299348     0.948098     5.657912
 O    -4.702983     1.803499     5.990886
 H    -5.283785     2.059974     5.239983
 H    -3.944575    -0.102355     1.952112
 O    -3.413418     0.205584     2.706250
 H    -3.315288     1.176183     2.623224
 H    -5.770515     0.612198    -2.305763
 O    -6.315119    -0.046274    -2.784712
 H    -5.883863    -0.138991    -3.656277
 H     1.903427    -3.809947    -4.188182
 O     1.848177    -4.263232    -5.052322
 H     1.440729    -5.124735    -4.866182
 H     4.473016    -3.589858    -0.697311
 O     4.754357    -2.843544    -0.123702
 H     3.993741    -2.215751    -0.123303
 H    -0.209830     3.021035    -0.911664
 O    -0.958026     2.653007    -1.411268
 H    -1.669572     3.313042    -1.278834
 H     1.795061     4.364555     1.569889
 O     2.246944     4.493949     2.423311
 H     2.050163     3.702659     2.950399
 H     3.717155     1.136879     1.631543
 O     2.943118     0.560296     1.781015
 H     2.172329     1.146208     1.912272
 H     3.147325    -3.968541    -2.140772
 O     3.843445    -4.601199    -1.836377
 H     4.525395    -4.599018    -2.526098
 H     4.988736    -3.776367    -4.579618
 O     5.416507    -3.472856    -3.741826
 H     5.015578    -2.614710    -3.494631
 H    -1.041095     5.036106     2.118387
 O    -1.218636     5.600181     1.328984
 H    -1.851081     5.109408     0.743697
 H    -5.658358     3.194884     0.445915
 O    -5.200798     3.701391    -0.251571
 H    -5.646943     4.560490    -0.400060
 H     5.001882    -3.917295     2.867162
 O     4.253646    -3.733521     2.293078
 H     4.591920    -3.436516     1.418959
 H     5.842896    -1.343174     1.312718
 O     5.449139    -0.448519     1.307974
 H     6.235617     0.128075     1.365719
 H     1.600757    -6.672182    -3.146125
 O     1.422403    -6.880021    -4.088826
 H     2.298732    -6.955324    -4.494222
 H    -7.211433    -3.599281     0.677765
 O    -8.178556    -3.586791     0.472647
 H    -8.640651    -3.401931     1.318855
 H     3.222505    -2.480508     2.748958
 O     2.539511    -1.811138     2.939840
 H     2.768358    -1.000938     2.450774
 H    -1.860371     2.688549     5.026151
 O    -2.560261     3.316465     5.321898
 H    -3.332085     2.763984     5.575878
 H    -0.762058     0.880775     3.953666
 O    -0.625473     1.493936     4.706755
 H     0.247125     1.871090     4.520980
 H     0.328077     3.502718    -6.929790
 O     1.281154     3.298714    -6.806468
 H     1.291203     2.443356    -6.336232
 H     7.128322    -2.941386     4.663420
 O     6.373911    -3.383915     4.206884
 H     5.566872    -3.031198     4.653787
 H     8.010627     1.425657     1.400807
 O     7.921167     0.495077     1.680255
 H     8.407078    -0.056246     1.039143
 H    -4.054551    -0.434372    -4.720695
 O    -4.982253    -0.466834    -5.060119
 H    -4.964199    -0.083790    -5.958474
 H     6.460317    -1.428122    -2.205822
 O     6.865982    -1.898410    -1.472420
 H     6.132115    -2.174863    -0.891108
 H     4.694262    -0.900054     4.404020
 O     5.114889    -0.155381     3.941010
 H     5.062415    -0.311115     2.974450
 H    -0.001678     3.270154     2.878442
 O    -0.624384     3.932504     3.240940
 H    -0.323325     4.170451     4.138241
 H     8.253158    -1.248784    -0.744915
 O     9.041370    -0.881720    -0.286783
 H     9.737199    -1.548404    -0.367092
 H     9.598873    -3.868027     2.093997
 O     9.307523    -3.670077     1.177390
 H     10.076028    -3.502904     0.621071
 H    -2.411688    -2.631062     3.773466
 O    -3.034914    -2.704924     3.039985
 H    -2.572215    -2.373667     2.229100
 H    -2.117956     0.844416    -6.316486
 O    -2.742881     1.595333    -6.351005
 H    -2.998069     1.770896    -5.421399
 H    -1.178060     3.897999    -5.512745
 O    -1.297084     3.873512    -6.490757
 H    -1.889826     3.115976    -6.643607
 H    -4.610268    -6.208624    -1.271249
 O    -5.081534    -5.463291    -0.869554
 H    -5.846406    -5.279669    -1.456266
 H     2.672500    -5.785579    -1.589363
 O     1.864718    -6.332515    -1.513466
 H     1.102909    -5.700788    -1.396329
 H     3.305530    -4.211072    -5.716587
 O     4.266764    -4.205342    -5.979787
 H     4.385914    -3.462445    -6.577645
 H     7.505487     3.411025     2.070653
 O     7.424036     3.063376     1.173495
 H     6.492563     2.736732     1.115324
 H     6.631453    -3.884023     0.276883
 O     7.117116    -4.694095     0.047989
 H     8.003771    -4.540106     0.429677
 H    -7.491273    -4.366973    -2.575047
 O    -7.267108    -5.299748    -2.361236
 H    -7.891497    -5.575366    -1.663188
 H    -4.356211     6.751956     4.932755
 O    -3.471860     6.410062     4.701564
 H    -2.993388     6.189314     5.516630
 H     7.282399     3.476893     4.839104
 O     7.284273     3.084522     3.956178
 H     7.531130     2.148741     4.085310
 H    -5.839610     0.842042     6.870392
 O    -6.611021     0.322889     7.210134
 H    -6.359351    -0.607600     7.052405
 H    -0.464374    -4.827659    -2.995814
 O    -0.628374    -4.722043    -3.950759
 H    -1.223503    -5.428776    -4.232334
 H     6.713447     0.178064     4.312914
 O     7.684375     0.367602     4.274638
 H     7.901213     0.331514     3.316390
 H     4.812951    -6.606326    -3.966631
 O     4.121473    -6.775414    -4.642439
 H     4.251708    -6.101234    -5.317590
 H    -5.885239    -1.806392    -5.328207
 O    -6.503828    -2.566900    -5.448685
 H    -7.354063    -2.140247    -5.729992
 H    -7.670027     0.618137     5.954046
 O    -8.224941     0.961292     5.210194
 H    -8.837851     1.586302     5.600859
 H    -5.199405     5.745906     2.276519
 O    -5.432072     6.662061     2.022929
 H    -4.572386     7.132470     2.010350
 H     5.814295     1.625638    -4.014098
 O     6.051522     0.846599    -4.563033
 H     5.561752     0.947252    -5.381701
 H    -5.828986     6.479538     0.365905
 O    -5.853066     6.261508    -0.589019
 H    -4.961318     6.497895    -0.921813
 H    -0.264870    -7.412653    -3.253714
 O    -0.968345    -7.540946    -2.606831
 H    -0.574832    -7.894451    -1.800331
 H    -2.539430    -1.617519     5.412877
 O    -1.908991    -2.361084     5.569855
 H    -1.057222    -1.890627     5.770290
 H     7.526310    -4.501849    -1.606702
 O     7.647463    -4.484049    -2.580454
 H     6.877556    -3.998856    -2.924301
 H    -8.810632    -2.863151    -3.385528
 O    -7.890459    -2.787556    -3.043449
 H    -7.341795    -2.594419    -3.818960
 H     8.839591    -3.303180    -2.950888
 O     9.474781    -2.579848    -3.137577
 H     8.976934    -1.748759    -3.035945
 H    -5.078427    -4.906639    -3.689861
 O    -5.039787    -3.944832    -3.552512
 H    -5.555494    -3.544391    -4.263287
 H    -3.612636     4.060249    -3.550756
 O    -3.322487     4.910728    -3.182540
 H    -3.603951     5.613810    -3.769188
 H    -0.203019     4.784911    -4.051900
 O    -0.863376     4.094419    -3.863560
 H    -1.645941     4.539164    -3.480260
 H    -1.962407    -4.121663     5.270270
 O    -2.260645    -4.979481     4.928939
 H    -3.190876    -4.827773     4.688281
 H    -2.351166     8.429414    -3.732741
 O    -2.558683     7.479408    -3.846552
 H    -2.357453     7.249456    -4.780504
 H    -2.955691     7.297902     3.243113
 O    -2.882093     7.499495     2.295582
 H    -2.284206     6.810417     1.939004
 H     4.814103     1.503447     4.172387
 O     4.664676     2.460670     4.011138
 H     5.540803     2.819816     3.775789
 H     7.863791    -1.842331     6.214045
 O     8.308939    -2.035658     5.365694
 H     8.269554    -1.184264     4.886961
 H     6.003595    -1.599752     7.722943
 O     6.712175    -1.075381     7.336216
 H     6.256812    -0.318824     6.903568
 H    -1.685767     5.710157    -6.468882
 O    -1.817987     6.649757    -6.269391
 H    -0.945471     7.072674    -6.360627
 H    -8.193498    -0.197376     3.880692
 O    -8.007942    -0.726601     3.092692
 H    -7.105325    -1.079273     3.193211
 H    -8.506316     0.162583     0.127913
 O    -8.536299     0.796835     0.863569
 H    -8.513899     0.245648     1.664262
 H     0.760636    -0.603912     5.876583
 O     0.097248    -0.960198     6.508326
 H    -0.414359    -0.172812     6.844325
 H    -0.423814     7.025661    -1.653576
 O    -0.380426     6.646586    -2.554351
 H    -1.233265     6.851710    -2.999424
 H     0.566397    -8.033655     0.482242
 O    -0.340082    -8.276039     0.238528
 H    -0.793843    -8.343012     1.106711
 H     2.023008     2.626776     5.217239
 O     2.038992     2.368848     4.272286
 H     2.982632     2.374470     4.028939
 H    -7.969818    -5.435058    -5.622240
 O    -7.071999    -5.293524    -5.964731
 H    -6.915033    -4.342151    -5.903518
 H     3.026895    -7.600232     0.973010
 O     2.141016    -7.232226     0.926886
 H     2.062769    -6.889453    -0.000310
 H     3.377988     5.725073    -7.411592
 O     3.527549     4.763899    -7.539053
 H     2.696119     4.315676    -7.319361
 H    -0.483358     6.974657     0.515428
 O    -0.173033     7.683260    -0.073407
 H    -0.845855     8.376782    -0.019150
 H     4.443824     3.595883     5.216621
 O     4.358191     4.240594     5.960086
 H     5.238732     4.295188     6.340903
 H     7.642380     2.721943     6.804780
 O     7.119364     3.564267     6.732521
 H     7.609482     4.219211     7.228219
 H     4.037919    -8.016380    -1.115278
 O     4.557416    -7.488394    -0.487028
 H     5.003754    -6.839879    -1.055257
 H     6.713066    -5.957698    -2.747286
 O     5.942469    -6.554180    -2.705229
 H     6.276636    -7.466954    -2.641362
 H    -9.004399    -2.109923     2.917864
 O    -9.492156    -2.925025     2.676153
 H    -10.225345    -2.614450     2.117951
 H    -2.638751     8.746116     1.011332
 O    -2.493327     9.107993     0.121433
 H    -3.286984     9.673452    -0.047965
 H     8.083706     0.568164     7.338857
 O     8.431146     1.267163     6.774116
 H     8.283397     0.947124     5.867315
 H    -2.183389     5.189575     7.741441
 O    -2.036866     5.353698     6.805482
 H    -2.238596     4.486284     6.318456
 H    -6.305073    -6.362745    -3.426019
 O    -5.635839    -6.556733    -4.107387
 H    -6.073306    -6.264190    -4.935979
 H     6.773594    -2.839811     2.641831
 O     6.901055    -2.575121     1.711425
 H     7.848397    -2.653865     1.527498
 H     2.364123     6.697517    -0.828734
 O     2.619883     7.433546    -0.228499
 H     1.776207     7.771280     0.096509
 H    -4.207821    -7.313752    -2.980506
 O    -3.648591    -7.365199    -2.196881
 H    -2.737978    -7.488273    -2.520414
 H     0.929414     6.734046    -5.632142
 O     0.761357     7.609322    -6.052899
 H     0.779274     8.237481    -5.301526
 H    -8.274154    -1.589694    -1.737658
 O    -8.567710    -1.325667    -0.851707
 H    -8.342360    -2.118229    -0.314170
 H    -3.229862     7.141137    -2.198139
 O    -3.332147     6.957226    -1.254563
 H    -3.026486     7.755581    -0.775049
 H     2.797474    -4.594718     2.260332
 O     1.880854    -4.934105     2.257759
 H     1.936926    -5.822884     1.850798
 H    -8.811474    -0.686373    -5.094953
 O    -8.723392    -1.259423    -5.892038
 H    -8.433034    -0.657258    -6.599754
 H     7.555312    -0.060531    -3.931741
 O     8.198338    -0.104712    -3.205254
 H     8.875011     0.559503    -3.398254
 H     4.252670     6.652721    -0.075798
 O     4.959179     6.016145    -0.270276
 H     4.497152     5.181803    -0.508528
 H    -7.941731     0.206237    -3.270155
 O    -8.838130     0.229027    -3.664642
 H    -9.443935    -0.008200    -2.961184
 H     6.152307     3.787627    -3.285223
 O     5.672778     3.002054    -2.963450
 H     6.256173     2.571104    -2.294506
 H    -1.362284    -6.918354     0.016923
 O    -1.974130    -6.173713    -0.155317
 H    -2.566558    -6.472618    -0.851904
 H    -3.991992    -7.788780     0.902890
 O    -4.223114    -7.535692     1.799672
 H    -4.001952    -6.576290     1.869982
 H    -2.887615    -5.089684     1.096876
 O    -3.601027    -4.970227     1.744816
 H    -3.314103    -4.257719     2.351595
 H     5.222825    -6.261002     4.748712
 O     4.470348    -6.016844     4.206600
 H     4.770551    -6.099772     3.286097
 H    -9.581790    -6.142117    -3.995502
 O    -9.592164    -5.677479    -4.863768
 H    -10.232869    -6.142549    -5.402140
 H     6.254453    -5.709977     1.147751
 O     5.738227    -6.302204     1.732435
 H     5.280846    -6.886975     1.116703
 H    -1.400709    -6.764023     2.490959
 O    -1.548810    -7.724017     2.538117
 H    -2.509725    -7.841409     2.530146
 H    -10.075411    -3.970939    -4.566480
 O    -10.200484    -3.045880    -4.295270
 H    -9.962865    -2.493373    -5.052317
 H     0.512362     7.962194    -3.252118
 O     0.837472     8.797617    -3.648162
 H     1.738190     8.931936    -3.286491
 H    -9.128953    -7.903172    -2.620821
 O    -9.713832    -7.143959    -2.619937
 H    -9.594951    -6.715218    -1.753150
 H     2.072405     0.624938     4.529300
 O     2.149786    -0.221933     5.002591
 H     2.366815    -0.910663     4.342296
 H    -6.522946     0.451851    -7.648774
 O    -7.481888     0.542307    -7.523645
 H    -7.632905     1.443845    -7.236993
 H     6.281773     3.886686    -7.286594
 O     5.689357     3.822548    -6.537495
 H     4.846365     4.287027    -6.831281
 H    -5.290346     10.299530     0.643798
 O    -4.795894     10.321764    -0.186368
 H    -5.381429     9.844693    -0.806918
 H    -0.786084    -1.096652    -5.802321
 O    -0.944266    -0.436743    -6.512061
 H    -0.156747     0.137931    -6.454045
 H     4.770212    -0.442893    -6.969279
 O     4.848416    -1.377877    -6.751237
 H     5.692682    -1.484099    -6.278218
 H     2.497813    -8.852885    -2.700715
 O     3.455052    -8.787382    -2.693660
 H     3.687861    -8.198344    -3.426559
 H    -4.207974    -0.392217    -7.931398
 O    -4.714847     0.362477    -7.594918
 H    -4.033315     0.998778    -7.279068
 H     1.343662     3.733062     6.654408
 O     2.077466     3.125073     6.889019
 H     2.892041     3.643220     6.722169
 H    -11.346744    -2.597554    -0.070948
 O    -10.928006    -1.967228     0.515507
 H    -10.192196    -1.577582     0.010911
 H    -7.428405     1.993102     7.552986
 O    -7.892453     2.838217     7.468887
 H    -8.021762     3.171312     8.356333
 H     6.159088    -9.086041    -1.213475
 O     6.244452    -9.201705    -2.164838
 H     5.359185    -9.421754    -2.480874
 H     6.637768     5.194802    -0.780237
 O     7.275021     4.528672    -1.058051
 H     7.460180     3.992333    -0.260101
 H    -5.464473    -2.921622     5.877234
 O    -5.441907    -2.164834     6.506036
 H    -4.728238    -2.419858     7.132800
 H     2.560945     1.408187     7.367128
 O     3.066936     0.574374     7.352827
 H     2.760738     0.169118     6.507336
 H    -2.614197    -2.843359     7.029685
 O    -3.137215    -3.033288     7.855018
 H    -2.512571    -2.791696     8.562110
 H     5.764142     1.976465     6.665453
 O     5.476673     1.104781     6.388474
 H     4.587604     0.953165     6.774467
 H     1.954738    -4.388213     4.079475
 O     2.439373    -4.332977     4.914920
 H     3.133760    -5.009443     4.831733
 H     10.430083    -2.772634    -1.805864
 O     10.923508    -2.786271    -0.941191
 H     11.853529    -2.762042    -1.159712
 H     3.934184     8.264640    -2.868997
 O     3.256296     8.841496    -2.495715
 H     3.077290     8.488597    -1.604935
 H    -8.184770    -6.436932     0.300252
 O    -8.827906    -6.009998    -0.288803
 H    -8.770335    -5.061705    -0.016298
 H    -0.671306     9.681040    -3.256998
 O    -1.609377     9.850743    -3.047284
 H    -1.677625     9.966928    -2.097136
 H     4.158054     3.998037    -3.762802
 O     3.610057     4.788267    -3.786936
 H     4.174431     5.559504    -3.571078
 H     5.213782     6.565970    -1.947796
 O     5.148515     6.779281    -2.899158
 H     5.930115     6.419475    -3.337939
 H    -0.375859     5.173993     6.078775
 O     0.337207     4.685813     5.649236
 H     1.037807     5.320106     5.359692
 H     3.209552     5.527458     5.155985
 O     2.448880     5.972936     4.753737
 H     2.398943     5.645529     3.841370
 H    -7.134466     9.007606    -0.189163
 O    -6.842301     8.785255    -1.082887
 H    -6.614310     7.839287    -1.057164
 H    -1.331543    -5.044663     3.535533
 O    -0.884402    -4.959438     2.662978
 H     0.035181    -5.220211     2.762329
 H     4.207134    -2.186494     6.224298
 O     4.214458    -2.338346     5.254119
 H     3.494441    -2.977949     5.077574
 H     7.080981    -6.212017     3.152521
 O     7.457575    -5.851070     3.964897
 H     6.985546    -5.010870     4.118394
 H     9.004751    -4.888267     3.903589
 O     9.641653    -4.160765     3.772080
 H     9.375730    -3.460615     4.380846
 H     3.124429     7.938956    -8.040115
 O     3.123242     7.399403    -7.250816
 H     2.250245     7.552858    -6.814243
 H    -0.276482    -1.777097     8.416082
 O    -0.670486    -2.245607     9.170396
 H    -0.091391    -3.012784     9.265957
 H     8.398426     4.449775    -2.246642
 O     9.078246     4.473568    -2.968780
 H     9.804159     4.983483    -2.609103
 H     6.427593     4.669183    -5.157734
 O     6.749166     5.062122    -4.324860
 H     7.695152     4.899227    -4.235851
 H     10.679379     2.117622    -4.161442
 O     9.941281     2.010536    -3.563471
 H     9.564037     2.903436    -3.397589
 H     3.114757    -2.473125     7.860379
 O     3.952034    -1.964055     7.877934
 H     3.675187    -1.038674     7.954565
 H    -2.394752    -1.944970    -8.813949
 O    -2.804917    -1.613848    -8.015964
 H    -2.099764    -1.163591    -7.502394
 H     5.126597     5.361691     1.549595
 O     4.916185     4.804938     2.309750
 H     3.946402     4.833456     2.405923
 H    -3.755718    -6.287201    -4.870525
 O    -2.946089    -5.777461    -4.947567
 H    -3.171079    -4.998748    -5.481024
 H    -6.548237     6.177936     4.906292
 O    -6.106647     7.000474     4.626166
 H    -5.971969     6.919850     3.655457
 H    -7.455474     4.143420     6.117156
 O    -7.185041     4.577693     5.298605
 H    -6.952565     3.854332     4.693792
 H    -7.222690     9.513537     2.445542
 O    -6.975980     9.905342     1.582958
 H    -7.440568     10.741479     1.532916
 H    -5.986860    -6.932401     1.657086
 O    -6.597301    -6.298122     1.249602
 H    -6.056795    -5.857293     0.559358
 H    -3.796097    -4.709957     7.591937
 O    -4.040005    -5.553301     7.166942
 H    -3.251592    -5.832411     6.686936
 H     9.562222     0.782318    -0.552147
 O     9.616182     1.738244    -0.734479
 H     9.926829     1.806669    -1.643342
 H    -7.976739    -4.186952     3.220086
 O    -7.051635    -4.453239     3.225388
 H    -6.923773    -5.093925     2.496403
 H     1.070857    -2.333579     6.909416
 O     1.560350    -3.099945     7.255804
 H     1.759313    -3.651056     6.485243
 H    -3.427256    -2.863391    -6.857117
 O    -3.844651    -3.490083    -6.247924
 H    -4.792516    -3.354586    -6.331482
 H    -8.665005     8.397560     3.848493
 O    -7.872687     8.926111     3.954809
 H    -7.197819     8.327706     4.338751
 H     8.030008    -2.139910    -5.181412
 O     7.106176    -1.885381    -5.206980
 H     6.635578    -2.526200    -4.641034
 H    -4.913485    -4.909292     5.753247
 O    -4.959868    -4.319719     4.974804
 H    -5.720566    -4.567699     4.429743
 N    -1.546286     0.869466     7.772620
 H    -1.237484     1.119208     8.706220
 H    -2.441139     0.398246     7.859151
 H    -1.699345     1.723204     7.245703
