604
grain_mol25 // -1931.170306041068 // -65.3817039368 // -973.774882027868 // -1022.77712795 // -0.0661714063 // -0.583329073038 // -0.019098127148
 H    -1.775138    -0.135833     2.498117
 O    -0.796348    -0.097827     2.557408
 H    -0.503950    -0.991146     2.856503
 H    -0.497913    -1.780326    -2.907195
 O    -0.549680    -1.820584    -1.939780
 H    -1.493808    -1.743302    -1.722991
 H    -2.791399     1.788967     0.941103
 O    -2.704024     1.165183     0.200793
 H    -1.931919     1.467958    -0.310567
 H    -3.870026     1.967324    -2.904502
 O    -3.375856     2.335389    -3.674147
 H    -2.467323     2.471126    -3.385603
 H    -0.169387    -0.594487    -0.823756
 O    -0.038014     0.123930    -0.175242
 H    -0.444141    -0.184971     0.645377
 H     0.813944    -1.787822    -4.864262
 O    -0.117934    -1.983288    -4.671976
 H    -0.202168    -2.947189    -4.725412
 H    -5.039589     2.389359    -1.125805
 O    -4.672580     1.575642    -1.522976
 H    -3.980069     1.290825    -0.880340
 H    -3.577878     3.290017     2.635794
 O    -2.854234     2.683550     2.386443
 H    -2.075253     3.025149     2.862968
 H     2.437709     0.370983    -2.998696
 O     1.848902    -0.279199    -2.564227
 H     0.938352     0.025783    -2.742067
 H    -1.269675     0.405253    -3.575116
 O    -0.462351     0.887456    -3.300048
 H    -0.700868     1.466774    -2.557566
 H     2.641816    -0.551372     0.487940
 O     2.541511    -1.284963    -0.153711
 H     2.255443    -0.886277    -0.997396
 H    -2.907800    -0.471079    -0.551836
 O    -3.058224    -0.916571    -1.396216
 H    -3.855171    -1.471475    -1.314317
 H     2.741152     1.314285    -0.843646
 O     1.919084     1.816816    -0.702582
 H     1.214423     1.158562    -0.524041
 H     0.418372     3.274022    -3.189347
 O     1.343518     3.093703    -2.976674
 H     1.369417     2.615610    -2.127722
 H     0.100007    -3.963619    -0.650007
 O    -0.139803    -4.639430    -1.323964
 H    -0.910496    -5.107691    -0.928917
 H    -6.248005     2.027226     3.184265
 O    -6.287094     2.208923     4.159741
 H    -7.024989     1.667046     4.502251
 H     1.151165    -3.722802     1.186645
 O     0.718955    -3.068597     0.607543
 H     1.387227    -2.398297     0.357579
 H    -3.014587     5.231567    -0.832692
 O    -2.815382     4.425268    -0.320758
 H    -3.695649     4.046160    -0.116641
 H    -5.509363    -1.342186     1.763386
 O    -5.257883    -0.689731     1.075269
 H    -5.379086    -1.133800     0.230680
 H    -0.297395    -3.253840     2.967691
 O     0.013347    -2.448428     3.414618
 H     0.952479    -2.336322     3.192730
 H     5.162405     1.115924    -1.261642
 O     4.387523     0.572346    -1.061506
 H     4.639025     0.144016    -0.210845
 H     0.683099     2.394842     1.076403
 O     0.697581     2.039789     1.974435
 H     0.095767     1.274690     2.022982
 H     4.354162    -0.398022    -2.440733
 O     4.541306    -0.866586    -3.286324
 H     5.004286    -0.205984    -3.842427
 H     2.949990     3.320566    -1.001362
 O     3.824705     3.731173    -0.992046
 H     4.294228     3.457564    -1.802816
 H    -5.953933    -1.497719    -1.817674
 O    -5.409202    -2.201254    -1.402623
 H    -5.331527    -2.904593    -2.070218
 H    -4.902168    -4.117994     1.249891
 O    -5.601356    -3.487801     0.993428
 H    -5.391723    -3.185021     0.099733
 H     2.567219     2.261240    -3.683880
 O     3.242411     1.591343    -3.917642
 H     3.292064     1.573573    -4.878928
 H    -5.157020     3.744398     3.915913
 O    -4.601580     4.347228     3.410370
 H    -4.065756     4.871776     4.043100
 H     0.481962     1.121681    -4.729511
 O     0.956081     1.026585    -5.581269
 H     1.570447     0.275085    -5.449643
 H     0.886090     5.857287    -2.196749
 O     1.691395     5.528627    -1.761783
 H     2.234001     5.098671    -2.451976
 H    -2.847740    -3.454117    -1.815489
 O    -2.974432    -3.725464    -0.890602
 H    -3.733132    -4.325024    -0.857026
 H     1.895241     5.290605    -4.481653
 O     1.010828     5.380472    -4.877096
 H     0.989966     4.697057    -5.573643
 H     7.684687     1.934430    -1.034602
 O     6.892979     1.581951    -1.478453
 H     7.243258     0.911879    -2.099630
 H     4.438295     2.824924     0.295606
 O     4.794415     2.450652     1.126378
 H     4.730166     3.183391     1.773583
 H     0.995658    -3.110309    -2.282751
 O     1.843155    -2.941243    -2.719937
 H     1.921776    -1.964129    -2.731712
 H     1.086684     4.639665    -0.532991
 O     0.647889     4.149673     0.198715
 H    -0.026981     4.746160     0.569369
 H    -5.772846     0.926893     1.371885
 O    -6.261429     1.746309     1.588566
 H    -7.196893     1.505937     1.366638
 H    -2.295865    -2.658565     0.237741
 O    -1.810079    -2.096002     0.870845
 H    -0.898699    -2.431394     0.842081
 H    -3.631886    -0.473887     4.325869
 O    -3.602738    -0.626868     5.297897
 H    -4.345673    -1.217963     5.557175
 H    -6.017559    -2.991577     3.269971
 O    -5.578914    -2.130054     3.366521
 H    -4.624498    -2.347909     3.339770
 H    -2.968657    -0.356585    -2.960457
 O    -2.726146    -0.399395    -3.912454
 H    -2.562398    -1.363474    -4.013572
 H    -3.542153    -3.340448    -3.736935
 O    -2.680048    -2.956666    -3.504315
 H    -1.988995    -3.580793    -3.801500
 H     3.089945    -1.032797    -4.375319
 O     2.522052    -1.141986    -5.161943
 H     3.140594    -1.287182    -5.895872
 H     4.464854     2.534427    -6.677811
 O     3.941780     1.707095    -6.698768
 H     3.093402     1.943376    -7.082955
 H    -4.114577     0.790904     5.876611
 O    -4.598239     1.606278     6.166789
 H    -5.180729     1.840798     5.416255
 H    -3.953706    -0.177245     2.067777
 O    -3.402055     0.124580     2.809559
 H    -3.329035     1.098552     2.747957
 H    -5.899154     0.577357    -2.121695
 O    -6.446222    -0.081510    -2.597275
 H    -6.036893    -0.153654    -3.481175
 H     1.784352    -3.703239    -4.275038
 O     1.713741    -4.143812    -5.144616
 H     1.322228    -5.013476    -4.962231
 H     4.440613    -3.502425    -0.849889
 O     4.726927    -2.761418    -0.272312
 H     3.958511    -2.143786    -0.241178
 H    -0.337799     3.044552    -0.834256
 O    -1.093412     2.673093    -1.319945
 H    -1.810717     3.320695    -1.158374
 H     1.712488     4.376849     1.615492
 O     2.183851     4.496538     2.459878
 H     2.013390     3.693097     2.976347
 H     3.681593     1.173169     1.576511
 O     2.917377     0.585543     1.734561
 H     2.144399     1.160236     1.895956
 H     3.083438    -3.876546    -2.264138
 O     3.796098    -4.504284    -1.988833
 H     4.459622    -4.480843    -2.695743
 H     4.857701    -3.618589    -4.745963
 O     5.304253    -3.321939    -3.915305
 H     4.897075    -2.474244    -3.642983
 H    -1.119913     4.997170     2.250360
 O    -1.321265     5.569323     1.473007
 H    -1.964499     5.080915     0.897448
 H    -5.749734     3.116803     0.667609
 O    -5.318478     3.640696    -0.034286
 H    -5.780471     4.495662    -0.155771
 H     5.068685    -3.874429     2.695383
 O     4.301845    -3.695390     2.144028
 H     4.612788    -3.379354     1.266595
 H     6.103236    -1.134639     1.227279
 O     5.524592    -0.327234     1.167637
 H     6.164804     0.396433     1.228774
 H     1.549439    -6.585923    -3.271841
 O     1.349494    -6.781388    -4.212801
 H     2.215662    -6.837375    -4.642284
 H    -7.202247    -3.701256     0.829253
 O    -8.174340    -3.699948     0.649447
 H    -8.616695    -3.534032     1.510323
 H     3.268077    -2.463997     2.646542
 O     2.579833    -1.807660     2.864325
 H     2.786329    -0.986655     2.381948
 H    -1.873990     2.537607     5.190875
 O    -2.593747     3.170319     5.371507
 H    -3.320706     2.649378     5.762133
 H    -0.779678     0.797003     4.014713
 O    -0.646342     1.330202     4.830247
 H     0.186544     1.793750     4.690788
 H     0.035285     3.628506    -6.855679
 O     0.994129     3.436081    -6.760962
 H     1.028299     2.573827    -6.304788
 H     7.239738    -2.978443     4.554665
 O     6.476506    -3.352344     4.022679
 H     5.677338    -3.003365     4.493603
 H     8.274916     1.608933     1.378647
 O     8.297487     0.685370     1.691720
 H     8.551196     0.136185     0.918645
 H    -4.232075    -0.405746    -4.597809
 O    -5.167647    -0.446568    -4.913478
 H    -5.178864    -0.048908    -5.805541
 H     6.359100    -1.286593    -2.370398
 O     6.790806    -1.761432    -1.654868
 H     6.075420    -2.060203    -1.061231
 H     4.759625    -0.893612     4.285872
 O     5.146125    -0.129904     3.827131
 H     5.082757    -0.273601     2.860347
 H    -0.030453     3.239290     2.951604
 O    -0.656561     3.878766     3.346913
 H    -0.328768     4.118189     4.235433
 H     8.138391    -1.070915    -0.952114
 O     8.938377    -0.722134    -0.492771
 H     9.644300    -1.376450    -0.656508
 H     9.717858    -4.070097     1.899407
 O     9.392626    -3.720532     1.026034
 H     10.149641    -3.582759     0.440119
 H    -2.336524    -2.713302     3.814339
 O    -2.975501    -2.787573     3.095396
 H    -2.541063    -2.433804     2.278803
 H    -2.356386     0.925697    -6.222119
 O    -2.992217     1.668067    -6.228272
 H    -3.225617     1.825161    -5.289609
 H    -1.438527     3.979408    -5.393670
 O    -1.582308     3.968397    -6.368626
 H    -2.168674     3.205254    -6.518219
 H    -4.616190    -6.241775    -1.229707
 O    -5.086354    -5.509390    -0.803834
 H    -5.869684    -5.327803    -1.366442
 H     2.648831    -5.708774    -1.729504
 O     1.851320    -6.268569    -1.640823
 H     1.083882    -5.649785    -1.494151
 H     3.151696    -4.060092    -5.845321
 O     4.105734    -4.035842    -6.133148
 H     4.197961    -3.282348    -6.722462
 H     7.443555     3.499094     1.957716
 O     7.343583     3.176525     1.052049
 H     6.417500     2.832094     1.013107
 H     6.630193    -3.778540     0.070676
 O     7.122830    -4.575245    -0.189900
 H     8.014190    -4.415598     0.176767
 H    -7.555773    -4.421869    -2.427331
 O    -7.312746    -5.354524    -2.234448
 H    -7.914826    -5.649991    -1.524845
 H    -4.382229     6.619470     5.175692
 O    -3.497980     6.299486     4.914771
 H    -2.994897     6.076942     5.713044
 H     7.296777     3.519105     4.720304
 O     7.281118     3.144257     3.830732
 H     7.533785     2.201179     3.943908
 H    -5.696214     0.670225     7.067480
 O    -6.453893     0.113294     7.361803
 H    -6.172538    -0.802124     7.197451
 H    -0.536986    -4.774192    -3.038407
 O    -0.726478    -4.655952    -3.987068
 H    -1.319911    -5.365805    -4.264540
 H     6.713578     0.276461     4.318984
 O     7.649244     0.575597     4.267698
 H     7.916761     0.380805     3.344075
 H     4.737584    -6.460298    -4.174997
 O     4.031385    -6.628872    -4.835267
 H     4.133844    -5.942171    -5.502547
 H    -6.058728    -1.794573    -5.179633
 O    -6.669243    -2.562031    -5.296746
 H    -7.532716    -2.143275    -5.548334
 H    -7.578898     0.427328     6.182007
 O    -8.160769     0.771902     5.457950
 H    -8.769674     1.383119     5.875824
 H    -5.279896     5.644845     2.528872
 O    -5.531677     6.560828     2.292218
 H    -4.679818     7.044289     2.267022
 H     5.621889     1.784624    -4.114558
 O     5.856590     1.017934    -4.681828
 H     5.343574     1.124119    -5.485507
 H    -5.969685     6.398853     0.645526
 O    -6.015595     6.196691    -0.312409
 H    -5.136180     6.451187    -0.663612
 H    -0.307641    -7.351363    -3.343413
 O    -0.991826    -7.499762    -2.680395
 H    -0.572533    -7.860745    -1.890402
 H    -2.433087    -1.748061     5.513721
 O    -1.770252    -2.470930     5.622429
 H    -0.937104    -1.999827     5.813218
 H     7.481446    -4.354264    -1.851505
 O     7.578580    -4.318120    -2.827598
 H     6.792093    -3.840847    -3.144335
 H    -8.916896    -2.924438    -3.178577
 O    -7.988933    -2.841619    -2.860015
 H    -7.464083    -2.627338    -3.646299
 H     8.742277    -3.117690    -3.209562
 O     9.364771    -2.382465    -3.394632
 H     8.856557    -1.560442    -3.272362
 H    -5.166123    -4.908509    -3.613295
 O    -5.136417    -3.948465    -3.462097
 H    -5.677017    -3.544243    -4.151957
 H    -3.823709     4.075498    -3.366556
 O    -3.533746     4.923713    -2.993234
 H    -3.842140     5.632444    -3.559169
 H    -0.438390     4.857355    -3.944333
 O    -1.083187     4.153947    -3.750230
 H    -1.862241     4.580944    -3.340082
 H    -1.829411    -4.221453     5.276985
 O    -2.121601    -5.077061     4.925298
 H    -3.061211    -4.936864     4.713987
 H    -2.628135     8.464562    -3.510337
 O    -2.824746     7.513494    -3.634362
 H    -2.645347     7.301565    -4.576872
 H    -3.035059     7.213411     3.459736
 O    -2.986254     7.432438     2.514029
 H    -2.389410     6.757036     2.131876
 H     4.838796     1.520455     4.089389
 O     4.669685     2.478031     3.949073
 H     5.537166     2.850852     3.699748
 H     8.126286    -1.887973     6.031429
 O     8.552010    -2.405525     5.319307
 H     9.028388    -1.758515     4.744229
 H     6.187609    -1.620293     7.542847
 O     6.871729    -1.073681     7.143043
 H     6.387233    -0.316739     6.744261
 H    -1.996541     5.798745    -6.307071
 O    -2.136656     6.733058    -6.089163
 H    -1.272932     7.170023    -6.196030
 H    -8.147323    -0.363502     4.111376
 O    -7.975829    -0.879296     3.310907
 H    -7.065722    -1.218904     3.382707
 H    -8.563067     0.048696     0.375485
 O    -8.583085     0.671293     1.121140
 H    -8.531178     0.109009     1.912844
 H     0.926254    -0.664545     5.849916
 O     0.105704    -0.759932     6.388299
 H    -0.411680     0.015281     6.109195
 H    -0.627517     7.056089    -1.505200
 O    -0.601968     6.692132    -2.412958
 H    -1.469174     6.891671    -2.832209
 H     0.629975    -8.019438     0.360098
 O    -0.278860    -8.271204     0.135731
 H    -0.709300    -8.358329     1.013969
 H     2.058132     2.577718     5.231572
 O     2.048787     2.318884     4.285773
 H     2.984070     2.356548     4.013032
 H    -8.099082    -5.448132    -5.477997
 O    -7.212607    -5.288141    -5.841364
 H    -7.067676    -4.335648    -5.768841
 H     3.095756    -7.558322     0.793688
 O     2.204419    -7.201251     0.777019
 H     2.096564    -6.845842    -0.142463
 H     3.040002     5.901935    -7.380703
 O     3.199902     4.945078    -7.527257
 H     2.380732     4.481545    -7.293556
 H    -0.629110     6.970178     0.663696
 O    -0.344662     7.692060     0.078030
 H    -1.025600     8.374804     0.161433
 H     4.468486     3.587355     5.178657
 O     4.391864     4.218718     5.935128
 H     5.281176     4.280056     6.294185
 H     7.722093     2.730960     6.668586
 O     7.181031     3.565514     6.628490
 H     7.674342     4.220389     7.121018
 H     4.057329    -7.926682    -1.326981
 O     4.586366    -7.401565    -0.704232
 H     5.007577    -6.737365    -1.273410
 H     6.660187    -5.804279    -2.994830
 O     5.899466    -6.411958    -2.942082
 H     6.247182    -7.321101    -2.902004
 H    -8.955391    -2.273827     3.140199
 O    -9.437386    -3.092038     2.896265
 H    -10.190169    -2.782488     2.364354
 H    -2.795430     8.701723     1.244185
 O    -2.678595     9.079662     0.356609
 H    -3.484514     9.636095     0.217476
 H     8.245157     0.623160     7.340800
 O     8.551107     1.301694     6.722570
 H     8.310396     0.922660     5.844443
 H    -2.294811     4.924685     7.810892
 O    -2.037951     5.166019     6.922077
 H    -2.233939     4.370265     6.342530
 H    -6.364536    -6.386066    -3.341045
 O    -5.710663    -6.559590    -4.042650
 H    -6.173923    -6.260320    -4.854691
 H     6.798259    -2.720257     2.523044
 O     6.938778    -2.498882     1.564383
 H     7.889120    -2.610356     1.395399
 H     2.185186     6.755205    -0.758759
 O     2.446590     7.485217    -0.153753
 H     1.607219     7.805737     0.198813
 H    -4.243410    -7.313716    -2.965614
 O    -3.662650    -7.369811    -2.198105
 H    -2.759423    -7.474262    -2.547628
 H     0.624842     6.847124    -5.521973
 O     0.434120     7.726416    -5.924159
 H     0.462447     8.342767    -5.163306
 H    -8.355259    -1.670116    -1.525264
 O    -8.629172    -1.424086    -0.628038
 H    -8.379100    -2.221366    -0.108767
 H    -3.447849     7.140004    -1.974300
 O    -3.521735     6.938990    -1.031651
 H    -3.216066     7.734234    -0.546847
 H     2.859849    -4.576744     2.134589
 O     1.948219    -4.929208     2.153555
 H     2.004638    -5.810070     1.729687
 H    -8.993295    -0.721253    -4.851740
 O    -8.917831    -1.280061    -5.660248
 H    -8.655028    -0.662308    -6.365259
 H     7.387908     0.120516    -4.103254
 O     8.052416     0.075437    -3.396027
 H     8.711419     0.754515    -3.598937
 H     4.093802     6.725975    -0.056479
 O     4.803745     6.103320    -0.281409
 H     4.347268     5.265854    -0.519130
 H    -8.088788     0.155207    -3.035777
 O    -8.995198     0.170574    -3.406971
 H    -9.579170    -0.085140    -2.691604
 H     5.947804     3.939956    -3.361014
 O     5.489018     3.141821    -3.039602
 H     6.095073     2.710947    -2.392043
 H    -1.325742    -6.925362    -0.038347
 O    -1.951418    -6.186376    -0.182516
 H    -2.558948    -6.482540    -0.867210
 H    -3.919482    -7.847037     0.901548
 O    -4.128129    -7.612605     1.808839
 H    -3.920595    -6.650858     1.888968
 H    -2.847463    -5.135654     1.110430
 O    -3.545072    -5.038246     1.778789
 H    -3.253638    -4.331432     2.390018
 H     5.369801    -6.245196     4.534166
 O     4.599315    -6.003835     4.016430
 H     4.876460    -6.067691     3.087347
 H    -9.657760    -6.203903    -3.821623
 O    -9.697188    -5.726010    -4.681853
 H    -10.345814    -6.191273    -5.210474
 H     6.299179    -5.623825     0.914658
 O     5.808440    -6.233987     1.502310
 H     5.342230    -6.814825     0.889441
 H    -1.302894    -6.809822     2.438630
 O    -1.434649    -7.772396     2.474563
 H    -2.393750    -7.904595     2.488851
 H    -10.196637    -4.031347    -4.344288
 O    -10.327519    -3.112664    -4.054854
 H    -10.117780    -2.544679    -4.808656
 H     0.253021     8.031325    -3.112236
 O     0.556270     8.877174    -3.503584
 H     1.463944     9.019012    -3.162937
 H    -9.144534    -7.979806    -2.487435
 O    -9.739676    -7.229133    -2.459626
 H    -9.604411    -6.812154    -1.589464
 H     2.124270     0.578534     4.520714
 O     2.234770    -0.281652     4.968599
 H     2.440998    -0.944731     4.276384
 H    -6.788837     0.491088    -7.445555
 O    -7.745339     0.565502    -7.294215
 H    -7.901637     1.459903    -6.988635
 H     5.971103     4.104016    -7.361552
 O     5.399974     4.019341    -6.598100
 H     4.542810     4.476167    -6.862150
 H    -5.476723     10.222454     0.971293
 O    -5.005104     10.264912     0.128659
 H    -5.600429     9.788869    -0.483379
 H    -0.984384    -1.003809    -5.774319
 O    -1.169891    -0.335405    -6.469230
 H    -0.389568     0.249895    -6.422217
 H     4.528969    -0.251318    -7.075204
 O     4.626758    -1.188365    -6.874441
 H     5.484383    -1.289211    -6.425150
 H     2.488608    -8.760405    -2.885360
 O     3.444667    -8.680634    -2.902232
 H     3.649288    -8.077071    -3.631699
 H    -4.470392    -0.315199    -7.802125
 O    -4.978670     0.426783    -7.440516
 H    -4.298155     1.067774    -7.132149
 H     1.403099     3.614975     6.701606
 O     2.158871     3.023142     6.882582
 H     2.965107     3.555960     6.751654
 H    -11.368680    -2.747697     0.203628
 O    -10.944108    -2.120981     0.789740
 H    -10.227144    -1.712110     0.273489
 H    -7.315335     1.781411     7.794734
 O    -7.798291     2.618534     7.739363
 H    -7.898996     2.937027     8.635858
 H     6.189377    -8.964449    -1.498134
 O     6.252310    -9.062846    -2.453190
 H     5.362458    -9.290782    -2.750349
 H     6.478911     5.315081    -0.850580
 O     7.119152     4.662517    -1.152920
 H     7.329628     4.119264    -0.365599
 H    -5.260429    -3.012503     5.893207
 O    -5.267848    -2.261884     6.527353
 H    -4.622071    -2.522332     7.206885
 H     2.708453     1.364554     7.429404
 O     3.179495     0.526649     7.317873
 H     2.847116     0.154831     6.473926
 H    -2.571548    -3.007506     7.042973
 O    -3.038535    -3.161953     7.892514
 H    -2.405036    -2.840911     8.550725
 H     5.853088     1.968785     6.561317
 O     5.564182     1.097547     6.284305
 H     4.690532     0.931640     6.694777
 H     2.060262    -4.412026     3.980400
 O     2.559995    -4.362301     4.807876
 H     3.264335    -5.024754     4.695624
 H     10.361046    -2.639411    -2.098570
 O     10.851319    -2.630625    -1.231063
 H     11.712008    -2.265575    -1.464057
 H     3.679379     8.376970    -2.813575
 O     3.003650     8.938053    -2.413432
 H     2.852839     8.568592    -1.524118
 H    -8.145049    -6.546379     0.430781
 O    -8.808815    -6.119273    -0.134745
 H    -8.757678    -5.174717     0.152245
 H    -0.954134     9.732831    -3.058000
 O    -1.888752     9.885377    -2.821692
 H    -1.934293     9.985413    -1.868329
 H     3.939564     4.128697    -3.782159
 O     3.380238     4.911209    -3.779321
 H     3.938912     5.687165    -3.565434
 H     5.005768     6.682984    -1.953909
 O     4.913270     6.909864    -2.900018
 H     5.688305     6.568521    -3.364218
 H    -0.352783     5.071223     6.193688
 O     0.360626     4.608496     5.732044
 H     1.040438     5.262826     5.440707
 H     3.206087     5.502787     5.181850
 O     2.430024     5.945009     4.806248
 H     2.359701     5.630839     3.890903
 H    -7.324137     8.917459     0.165761
 O    -7.052408     8.713416    -0.738768
 H    -6.810745     7.770458    -0.733821
 H    -1.230940    -5.105467     3.508780
 O    -0.805028    -4.995286     2.628103
 H     0.118533    -5.250890     2.699031
 H     4.342177    -2.214058     6.097277
 O     4.319139    -2.351124     5.126151
 H     3.607308    -3.001535     4.958945
 H     7.180478    -6.151268     2.885000
 O     7.574227    -5.801018     3.693617
 H     7.101510    -4.964796     3.872282
 H     9.183258    -5.216474     3.603875
 O     9.950420    -4.609347     3.483178
 H     9.816921    -3.964731     4.194655
 H     2.738726     8.121546    -7.966462
 O     2.766007     7.569317    -7.186450
 H     1.902757     7.703370    -6.724589
 H    -0.449019    -1.466610     8.094844
 O    -0.634746    -2.117559     8.786166
 H     0.081296    -2.756792     8.731909
 H     8.210623     4.618430    -2.370445
 O     8.872988     4.659746    -3.108167
 H     9.598522     5.179074    -2.761536
 H     6.161617     4.854725    -5.224941
 O     6.500329     5.238144    -4.394332
 H     7.450430     5.087190    -4.333660
 H     10.472159     2.348881    -4.381008
 O     9.757414     2.218800    -3.759391
 H     9.371361     3.102858    -3.567157
 H     3.297884    -2.532722     7.769041
 O     4.125812    -2.014563     7.762309
 H     3.843052    -1.092898     7.862266
 H    -2.659337    -1.827442    -8.756741
 O    -3.052920    -1.515129    -7.942991
 H    -2.341040    -1.062802    -7.440748
 H     5.028350     5.422695     1.524163
 O     4.845482     4.850791     2.279907
 H     3.878760     4.864208     2.402982
 H    -3.855040    -6.250783    -4.849733
 O    -3.054836    -5.728449    -4.940209
 H    -3.305157    -4.944565    -5.454522
 H    -6.564888     6.013838     5.198740
 O    -6.144104     6.847861     4.919405
 H    -6.033898     6.783532     3.944806
 H    -7.409227     3.951887     6.399528
 O    -7.173276     4.399469     5.577271
 H    -6.934400     3.685873     4.963686
 H    -7.350331     9.379382     2.809212
 O    -7.131929     9.789020     1.947086
 H    -7.609546     10.618942     1.923582
 H    -5.905198    -7.031972     1.722232
 O    -6.534793    -6.400948     1.339925
 H    -6.018600    -5.940572     0.644005
 H    -3.596908    -4.876066     7.636286
 O    -3.833045    -5.714889     7.200867
 H    -3.051123    -5.970402     6.697785
 H     9.467362     0.941011    -0.916251
 O     9.543410     1.916893    -0.969225
 H     9.820730     2.069791    -1.884613
 H    -7.891625    -4.339374     3.381419
 O    -6.963389    -4.593637     3.357267
 H    -6.846831    -5.220082     2.614429
 H     1.194174    -2.408289     6.838761
 O     1.707153    -3.151281     7.174618
 H     1.909523    -3.706168     6.405153
 H    -3.627351    -2.791585    -6.788816
 O    -4.019355    -3.434033    -6.179195
 H    -4.970970    -3.311044    -6.235402
 H    -8.739206     8.221037     4.232231
 O    -7.951681     8.759286     4.324670
 H    -7.258894     8.164604     4.682086
 H     7.858423    -1.930964    -5.401753
 O     6.931605    -1.686943    -5.396433
 H     6.483775    -2.344042    -4.830414
 H    -4.753652    -5.061158     5.819473
 O    -4.824379    -4.464557     5.048676
 H    -5.598159    -4.712028     4.522268
 N     10.248646    -1.186296     3.349887
 H     9.980850    -0.309006     2.909556
 H     10.303175    -1.878719     2.607372
 H     11.184556    -1.068761     3.724599
