604
grain_mol77 // -1574.40463200769 // -39.9776424493 // -591.59577397699 // -1022.78650048 // -0.0349344153 // -0.58298305882 // -0.009386330566
 H    -1.760163    -0.072440     2.440891
 O    -0.782965    -0.079690     2.534738
 H    -0.542944    -0.989226     2.831673
 H    -0.371619    -1.715010    -2.937669
 O    -0.457824    -1.762814    -1.973097
 H    -1.404502    -1.646078    -1.786835
 H    -2.633349     1.912738     0.873681
 O    -2.548111     1.294248     0.128787
 H    -1.745711     1.566927    -0.351634
 H    -3.567758     2.182589    -3.004087
 O    -3.030913     2.536222    -3.751749
 H    -2.127711     2.626551    -3.430566
 H    -0.062085    -0.568096    -0.829443
 O     0.080595     0.135574    -0.167187
 H    -0.369900    -0.162843     0.633984
 H     1.006782    -1.761560    -4.848695
 O     0.060818    -1.916072    -4.690916
 H    -0.065200    -2.874488    -4.758802
 H    -4.778019     2.637975    -1.261267
 O    -4.434569     1.813114    -1.656479
 H    -3.779286     1.488784    -0.993798
 H    -3.409527     3.430422     2.558392
 O    -2.705231     2.795201     2.326094
 H    -1.929341     3.094836     2.834404
 H     2.660360     0.300740    -2.901876
 O     2.028315    -0.326312    -2.494850
 H     1.139031     0.021099    -2.700491
 H    -1.019116     0.510259    -3.604170
 O    -0.200792     0.952122    -3.295720
 H    -0.438644     1.533694    -2.554830
 H     2.699859    -0.666551     0.577728
 O     2.591587    -1.388293    -0.075453
 H     2.351591    -0.969023    -0.923735
 H    -2.799471    -0.324190    -0.649914
 O    -2.940433    -0.751519    -1.505235
 H    -3.764081    -1.270573    -1.457257
 H     2.930481     1.206130    -0.727061
 O     2.127910     1.743780    -0.605494
 H     1.388084     1.116425    -0.460683
 H     0.782823     3.294848    -3.125282
 O     1.690817     3.070416    -2.882678
 H     1.664992     2.582160    -2.039622
 H     0.048109    -3.947854    -0.688986
 O    -0.197549    -4.604771    -1.379165
 H    -1.002380    -5.041304    -1.016797
 H    -6.151219     2.284180     2.999734
 O    -6.217339     2.458302     3.975233
 H    -6.989103     1.944650     4.284965
 H     1.044342    -3.775936     1.186376
 O     0.663963    -3.096180     0.600507
 H     1.370042    -2.454696     0.382103
 H    -2.638121     5.381281    -0.863782
 O    -2.493381     4.561429    -0.355116
 H    -3.396483     4.220531    -0.185903
 H    -5.517695    -1.098264     1.567900
 O    -5.212984    -0.451285     0.894779
 H    -5.323002    -0.884578     0.043080
 H    -0.444427    -3.260078     2.923345
 O    -0.110865    -2.474359     3.389176
 H     0.839024    -2.404699     3.199686
 H     5.355202     0.900628    -1.064611
 O     4.548542     0.393153    -0.895916
 H     4.750052    -0.055178    -0.044008
 H     0.858022     2.357572     1.136377
 O     0.826723     1.991511     2.029597
 H     0.188097     1.255177     2.048379
 H     4.518865    -0.560935    -2.288983
 O     4.714376    -1.028268    -3.132910
 H     5.226593    -0.383684    -3.664348
 H     3.236235     3.202240    -0.851308
 O     4.128467     3.570495    -0.805332
 H     4.612997     3.285958    -1.603721
 H    -5.842072    -1.193322    -2.034690
 O    -5.344662    -1.925472    -1.610572
 H    -5.275765    -2.625556    -2.282015
 H    -5.030885    -3.886301     1.039010
 O    -5.693466    -3.226161     0.766858
 H    -5.445689    -2.931660    -0.118919
 H     2.899289     2.190542    -3.558366
 O     3.550924     1.492820    -3.776851
 H     3.633735     1.483185    -4.735990
 H    -5.010330     3.941617     3.789022
 O    -4.410790     4.524586     3.311243
 H    -3.874145     5.016387     3.968886
 H     0.802209     1.158519    -4.688963
 O     1.300971     1.051325    -5.525047
 H     1.875783     0.271126    -5.381919
 H     1.332254     5.843111    -2.084630
 O     2.106175     5.473100    -1.626457
 H     2.652375     5.026562    -2.303258
 H    -2.830518    -3.290788    -1.948297
 O    -2.997282    -3.568074    -1.031865
 H    -3.786690    -4.127699    -1.028727
 H     2.393857     5.255725    -4.340867
 O     1.528718     5.390312    -4.765224
 H     1.501093     4.716143    -5.470525
 H     7.901793     1.607003    -0.746799
 O     7.107715     1.289183    -1.214351
 H     7.451010     0.611269    -1.831130
 H     4.655197     2.622950     0.488984
 O     4.964176     2.225705     1.328483
 H     4.909865     2.956478     1.978922
 H     1.038020    -3.118944    -2.278723
 O     1.907180    -2.983877    -2.684112
 H     2.030040    -2.011340    -2.681561
 H     1.419298     4.599613    -0.430175
 O     0.934335     4.122534     0.280705
 H     0.273621     4.744719     0.634354
 H    -5.664405     1.181853     1.192747
 O    -6.120244     2.022491     1.400972
 H    -7.057599     1.830505     1.142930
 H    -2.315902    -2.544116     0.133032
 O    -1.825738    -2.009505     0.786843
 H    -0.931371    -2.388422     0.786696
 H    -3.694103    -0.348195     4.198960
 O    -3.706418    -0.511023     5.169675
 H    -4.483063    -1.072419     5.394870
 H    -6.156401    -2.744550     3.017907
 O    -5.690971    -1.900854     3.147169
 H    -4.746284    -2.158823     3.155094
 H    -2.771278    -0.179605    -3.057468
 O    -2.498231    -0.222449    -4.001338
 H    -2.374618    -1.191810    -4.109001
 H    -3.451821    -3.125350    -3.890540
 O    -2.581630    -2.783178    -3.625886
 H    -1.909779    -3.435738    -3.905431
 H     3.296127    -1.116570    -4.272457
 O     2.751564    -1.190899    -5.079404
 H     3.388363    -1.356286    -5.793267
 H     4.910659     2.409221    -6.481760
 O     4.351455     1.607076    -6.530684
 H     3.528708     1.885911    -6.941134
 H    -4.172869     0.921253     5.747123
 O    -4.627434     1.755913     6.030845
 H    -5.172771     2.024527     5.263994
 H    -3.922756    -0.012481     1.936716
 O    -3.381545     0.257597     2.698556
 H    -3.265562     1.227828     2.651422
 H    -5.683842     0.878897    -2.308942
 O    -6.243847     0.252607    -2.812739
 H    -5.806418     0.170979    -3.682145
 H     1.868263    -3.725495    -4.250001
 O     1.807804    -4.152730    -5.126938
 H     1.371539    -5.005676    -4.968879
 H     4.410770    -3.682776    -0.732973
 O     4.709180    -2.962332    -0.135096
 H     3.968786    -2.310855    -0.124912
 H    -0.064421     3.074805    -0.800302
 O    -0.818377     2.743781    -1.316621
 H    -1.511288     3.421153    -1.171393
 H     1.957292     4.285659     1.734534
 O     2.405061     4.373325     2.595802
 H     2.178112     3.573724     3.096016
 H     3.778875     0.998422     1.721658
 O     2.986304     0.441920     1.849964
 H     2.232643     1.048058     1.988786
 H     3.087480    -3.979578    -2.197414
 O     3.761437    -4.641190    -1.904701
 H     4.449134    -4.641295    -2.588734
 H     4.956793    -3.776662    -4.614383
 O     5.385770    -3.510074    -3.764637
 H     5.009113    -2.647086    -3.497048
 H    -0.864924     5.027300     2.279220
 O    -1.012490     5.616248     1.502541
 H    -1.657030     5.164131     0.899222
 H    -5.516150     3.376738     0.515331
 O    -5.037656     3.889030    -0.164428
 H    -5.456773     4.764960    -0.290830
 H     4.897103    -4.126149     2.824046
 O     4.159434    -3.899112     2.251789
 H     4.513914    -3.591187     1.387525
 H     5.830443    -1.536160     1.351048
 O     5.464170    -0.630056     1.369473
 H     6.267594    -0.079790     1.448668
 H     1.468394    -6.604869    -3.291423
 O     1.292691    -6.780967    -4.241015
 H     2.170011    -6.871748    -4.641048
 H    -7.363045    -3.332790     0.668499
 O    -8.309814    -3.273468     0.390403
 H    -8.815608    -3.004868     1.196761
 H     3.164292    -2.630875     2.732170
 O     2.501292    -1.944947     2.936960
 H     2.758571    -1.129983     2.469366
 H    -1.832193     2.572213     5.161594
 O    -2.527929     3.235452     5.325860
 H    -3.291509     2.743587     5.683464
 H    -0.777831     0.796302     4.002027
 O    -0.648017     1.314103     4.828282
 H     0.208813     1.741227     4.722370
 H     0.544102     3.706332    -6.797797
 O     1.489337     3.469343    -6.672512
 H     1.468569     2.601438    -6.226337
 H     7.036146    -3.265920     4.665587
 O     6.272413    -3.672371     4.190915
 H     5.473001    -3.307177     4.639785
 H     8.080968     1.160730     1.535580
 O     7.960183     0.225865     1.787896
 H     8.435187    -0.322087     1.135743
 H    -3.977573    -0.153666    -4.737928
 O    -4.902284    -0.148941    -5.086941
 H    -4.864054     0.259325    -5.973429
 H     6.477438    -1.542413    -2.163196
 O     6.861520    -2.044849    -1.439502
 H     6.114110    -2.314730    -0.872717
 H     4.669277    -1.144999     4.441452
 O     5.114421    -0.399471     4.004679
 H     5.068220    -0.525930     3.033209
 H     0.119017     3.213143     2.996044
 O    -0.489829     3.877144     3.377411
 H    -0.183591     4.090924     4.279881
 H     8.261493    -1.458946    -0.682583
 O     9.056035    -1.129779    -0.206988
 H     9.732051    -1.814849    -0.300838
 H     9.499733    -4.197011     2.092338
 O     9.222812    -3.964437     1.179476
 H     10.001137    -3.805741     0.634348
 H    -2.485261    -2.638555     3.703465
 O    -3.101175    -2.671518     2.961896
 H    -2.622051    -2.330105     2.166324
 H    -1.988231     1.108846    -6.280364
 O    -2.589315     1.879434    -6.299164
 H    -2.847700     2.037001    -5.367107
 H    -0.962268     4.108278    -5.383042
 O    -1.072476     4.114459    -6.362408
 H    -1.687165     3.380527    -6.541482
 H    -4.737249    -6.000645    -1.474234
 O    -5.185270    -5.250176    -1.055521
 H    -5.945879    -5.027717    -1.634322
 H     2.551875    -5.795749    -1.701072
 O     1.727192    -6.319401    -1.647120
 H     0.983790    -5.667807    -1.519207
 H     3.271897    -4.127189    -5.777040
 O     4.235317    -4.143714    -6.031792
 H     4.382541    -3.388624    -6.607727
 H     7.630595     3.141833     2.256739
 O     7.547120     2.821108     1.349801
 H     6.606611     2.525611     1.274342
 H     6.549931    -4.070572     0.250361
 O     7.012359    -4.889046     0.004092
 H     7.899948    -4.772898     0.396843
 H    -7.552431    -4.039344    -2.733218
 O    -7.367898    -4.983773    -2.536389
 H    -8.004145    -5.242319    -1.840240
 H    -4.149990     6.764999     5.111056
 O    -3.272309     6.408263     4.876937
 H    -2.808305     6.153789     5.689160
 H     7.384027     3.137679     5.023884
 O     7.380428     2.769575     4.130591
 H     7.598832     1.823871     4.235213
 H    -5.797457     0.860154     6.882154
 O    -6.588822     0.335050     7.144509
 H    -6.343650    -0.590062     6.975021
 H    -0.541020    -4.702076    -3.106887
 O    -0.691651    -4.565569    -4.060126
 H    -1.306331    -5.244750    -4.366340
 H     6.719700    -0.126254     4.399649
 O     7.696323     0.032715     4.375099
 H     7.920716     0.017752     3.417891
 H     4.688586    -6.615614    -4.082664
 O     3.998666    -6.744419    -4.768808
 H     4.155667    -6.056011    -5.423611
 H    -5.843947    -1.450796    -5.399347
 O    -6.484963    -2.187938    -5.546280
 H    -7.318662    -1.726940    -5.823184
 H    -7.656598     0.713830     5.929412
 O    -8.198278     1.093390     5.192023
 H    -8.788693     1.730399     5.597970
 H    -4.998135     5.861349     2.423228
 O    -5.199572     6.790509     2.189642
 H    -4.326314     7.234648     2.199536
 H     5.942455     1.579564    -3.890018
 O     6.160688     0.809000    -4.458470
 H     5.682078     0.947643    -5.278207
 H    -5.586792     6.666677     0.526702
 O    -5.608413     6.477773    -0.434747
 H    -4.706527     6.695080    -0.752212
 H    -0.417320    -7.283878    -3.436231
 O    -1.130669    -7.408826    -2.799596
 H    -0.756060    -7.796085    -1.999632
 H    -2.596055    -1.687572     5.410792
 O    -1.968885    -2.438993     5.534938
 H    -1.123527    -2.007442     5.759398
 H     7.442930    -4.662923    -1.641804
 O     7.573747    -4.621505    -2.613477
 H     6.822196    -4.103612    -2.950243
 H    -8.818271    -2.470672    -3.516820
 O    -7.899971    -2.434155    -3.162824
 H    -7.336800    -2.233264    -3.926088
 H     8.805036    -3.468230    -2.940468
 O     9.463908    -2.759970    -3.100885
 H     8.990794    -1.916983    -2.980681
 H    -5.147729    -4.619458    -3.842928
 O    -5.081100    -3.663386    -3.679368
 H    -5.576981    -3.227481    -4.383254
 H    -3.409543     4.291200    -3.437606
 O    -3.094520     5.121386    -3.044504
 H    -3.350999     5.849333    -3.611941
 H     0.025549     4.923981    -3.889424
 O    -0.656655     4.248537    -3.726398
 H    -1.429574     4.705976    -3.338009
 H    -2.092271    -4.184975     5.164826
 O    -2.411657    -5.020072     4.789492
 H    -3.340542    -4.828400     4.559393
 H    -2.012046     8.622514    -3.486053
 O    -2.247026     7.682816    -3.628509
 H    -2.044801     7.473121    -4.566896
 H    -2.718303     7.315331     3.449982
 O    -2.626258     7.542441     2.509421
 H    -2.048096     6.844447     2.139423
 H     4.861546     1.261782     4.280298
 O     4.741100     2.226843     4.145363
 H     5.629952     2.565827     3.928132
 H     7.790586    -2.234158     6.252863
 O     8.236089    -2.417705     5.402702
 H     8.227959    -1.552260     4.947998
 H     5.924994    -1.974834     7.753731
 O     6.652102    -1.462914     7.385781
 H     6.224880    -0.680301     6.971159
 H    -1.405030     5.961065    -6.292311
 O    -1.510169     6.898419    -6.067859
 H    -0.624292     7.296521    -6.139496
 H    -8.181154    -0.009922     3.831870
 O    -8.055221    -0.522879     3.015264
 H    -7.194150    -0.971101     3.133940
 H    -8.451895     0.453135     0.086295
 O    -8.472047     1.068496     0.836336
 H    -8.467342     0.498240     1.624860
 H     0.796765    -0.759951     5.876419
 O    -0.044117    -0.822481     6.386677
 H    -0.517949    -0.023325     6.097705
 H    -0.148733     7.102279    -1.430859
 O    -0.107845     6.747450    -2.341629
 H    -0.949980     6.990804    -2.788028
 H     0.358805    -8.034595     0.288448
 O    -0.552051    -8.242896     0.030404
 H    -1.015992    -8.317614     0.892928
 H     2.093446     2.432998     5.338348
 O     2.105437     2.184915     4.389667
 H     3.049686     2.183746     4.148671
 H    -8.037041    -5.003247    -5.811367
 O    -7.132451    -4.880515    -6.142704
 H    -6.946153    -3.936543    -6.054208
 H     2.826871    -7.690885     0.811655
 O     1.953765    -7.293051     0.769830
 H     1.893499    -6.923443    -0.148418
 H     3.665153     5.845702    -7.191041
 O     3.786410     4.884220    -7.344042
 H     2.939498     4.456056    -7.144331
 H    -0.229904     6.992817     0.735307
 O     0.107594     7.707384     0.169187
 H    -0.544292     8.419552     0.237396
 H     4.547060     3.333301     5.380773
 O     4.474368     3.958374     6.142034
 H     5.352755     3.976478     6.531138
 H     7.703757     2.317254     6.970272
 O     7.206169     3.176094     6.917527
 H     7.709783     3.802048     7.436667
 H     3.843974    -8.079958    -1.278038
 O     4.373821    -7.586011    -0.630984
 H     4.844907    -6.936169    -1.177329
 H     6.596214    -6.060694    -2.829619
 O     5.807202    -6.633750    -2.810258
 H     6.112401    -7.557953    -2.769661
 H    -9.396862    -1.597007     2.609353
 O    -9.994049    -2.288056     2.243000
 H    -10.534463    -1.827466     1.567842
 H    -2.334198     8.815260     1.262663
 O    -2.169310     9.197287     0.384522
 H    -2.943913     9.791373     0.224662
 H     8.074000     0.136023     7.447071
 O     8.446998     0.839558     6.904812
 H     8.298286     0.549482     5.988171
 H    -2.235088     4.947902     7.794928
 O    -1.935789     5.186355     6.918704
 H    -2.148370     4.406822     6.322875
 H    -6.423373    -6.043304    -3.626553
 O    -5.754350    -6.238377    -4.307722
 H    -6.174608    -5.909856    -5.131674
 H     6.703117    -3.097387     2.644676
 O     6.846753    -2.810578     1.723423
 H     7.792812    -2.913830     1.544718
 H     2.619781     6.664974    -0.592214
 O     2.892856     7.375254     0.030916
 H     2.057071     7.730324     0.358006
 H    -4.356491    -7.072366    -3.196481
 O    -3.807307    -7.164910    -2.409585
 H    -2.896985    -7.303790    -2.727569
 H     1.232225     6.879991    -5.404666
 O     1.095518     7.771422    -5.802112
 H     1.125315     8.377503    -5.033135
 H    -8.245064    -1.292377    -1.832068
 O    -8.536174    -1.014199    -0.948653
 H    -8.365468    -1.814525    -0.399799
 H    -2.944072     7.320179    -1.995613
 O    -3.059594     7.112550    -1.058597
 H    -2.735427     7.887732    -0.553806
 H     2.679807    -4.717164     2.180835
 O     1.753175    -5.027280     2.165582
 H     1.783026    -5.904969     1.732288
 H    -8.736601    -0.248568    -5.159116
 O    -8.659163    -0.801628    -5.971479
 H    -8.343821    -0.188880    -6.659173
 H     7.630147    -0.161528    -3.840401
 O     8.264633    -0.245660    -3.109917
 H     8.963166     0.402407    -3.278533
 H     4.499234     6.540853     0.175119
 O     5.187647     5.888088    -0.030596
 H     4.702382     5.075687    -0.296696
 H    -7.857170     0.565755    -3.302052
 O    -8.748119     0.624567    -3.705235
 H    -9.369192     0.400076    -3.011141
 H     6.339827     3.708808    -3.097911
 O     5.833616     2.929720    -2.802118
 H     6.397338     2.462753    -2.140646
 H    -1.529226    -6.848678    -0.164232
 O    -2.114754    -6.080043    -0.320865
 H    -2.712304    -6.339856    -1.028472
 H    -4.178804    -7.664138     0.673362
 O    -4.409886    -7.434331     1.576432
 H    -4.171770    -6.480597     1.678882
 H    -3.007700    -5.001848     0.956073
 O    -3.724494    -4.885217     1.600050
 H    -3.428192    -4.196684     2.229620
 H     5.026314    -6.526513     4.643672
 O     4.287722    -6.238523     4.103936
 H     4.591613    -6.309552     3.183547
 H    -9.686985    -5.705242    -4.213561
 O    -9.673678    -5.219429    -5.069746
 H    -10.322222    -5.650554    -5.626710
 H     6.108549    -5.907560     1.067856
 O     5.568113    -6.498656     1.631550
 H     5.099633    -7.052278     0.995604
 H    -1.586603    -6.760277     2.315911
 O    -1.760638    -7.716648     2.334506
 H    -2.724724    -7.805849     2.313091
 H    -10.106101    -3.504729    -4.733834
 O    -10.205418    -2.584384    -4.437253
 H    -9.944169    -2.017810    -5.176050
 H     0.830692     8.053636    -2.994487
 O     1.185412     8.888993    -3.364516
 H     2.086169     8.985440    -2.991239
 H    -9.302641    -7.512250    -2.875660
 O    -9.866123    -6.737407    -2.857640
 H    -9.736797    -6.328724    -1.983145
 H     2.093407     0.440634     4.604329
 O     2.154278    -0.427978     5.045427
 H     2.348763    -1.093061     4.351604
 H    -6.390477     0.889927    -7.660623
 O    -7.347367     1.005978    -7.541052
 H    -7.473576     1.903345    -7.230262
 H     6.509679     3.915592    -7.093314
 O     5.908663     3.848846    -6.351326
 H     5.083015     4.347238    -6.639071
 H    -4.932510     10.460001     0.916838
 O    -4.430396     10.490056     0.091470
 H    -5.025026     10.048324    -0.546466
 H    -0.721457    -0.886154    -5.809845
 O    -0.852285    -0.202466    -6.502382
 H    -0.048314     0.345987    -6.421371
 H     4.862968    -0.372520    -6.911077
 O     4.910519    -1.315149    -6.718569
 H     5.746740    -1.460417    -6.241694
 H     2.293895    -8.824067    -2.899633
 O     3.252581    -8.788144    -2.882624
 H     3.509951    -8.186639    -3.596950
 H    -4.099577    -0.016799    -7.947572
 O    -4.586245     0.743576    -7.594521
 H    -3.888618     1.349391    -7.254708
 H     1.435412     3.482111     6.797435
 O     2.157550     2.854817     6.996607
 H     2.990190     3.352927     6.900977
 H    -11.489079    -1.871153    -0.602737
 O    -11.078478    -1.222280    -0.031027
 H    -10.204024    -1.024413    -0.425461
 H    -7.388188     2.037452     7.567216
 O    -7.832017     2.895663     7.506779
 H    -7.946757     3.209261     8.403329
 H     5.931851    -9.211869    -1.389015
 O     6.022664    -9.303239    -2.342507
 H     5.134130    -9.486964    -2.672303
 H     6.844936     5.030073    -0.549955
 O     7.463842     4.352402    -0.841093
 H     7.625258     3.788693    -0.057075
 H    -5.482382    -2.827461     5.676283
 O    -5.486952    -2.083090     6.319649
 H    -4.876255    -2.376947     7.017541
 H     2.613581     1.166982     7.541337
 O     3.053208     0.311586     7.433278
 H     2.729389    -0.036780     6.575954
 H    -2.846220    -2.954983     6.919160
 O    -3.346865    -3.093954     7.751952
 H    -2.720939    -2.810473     8.433953
 H     5.808768     1.635178     6.790652
 O     5.494690     0.780962     6.488793
 H     4.599578     0.649469     6.866314
 H     1.823528    -4.534722     4.001631
 O     2.298874    -4.514948     4.844792
 H     2.973512    -5.209996     4.748690
 H     10.400281    -3.019388    -1.767316
 O     10.884809    -3.072467    -0.899097
 H     11.817172    -3.071080    -1.108842
 H     4.256743     8.239037    -2.573934
 O     3.593555     8.825979    -2.190197
 H     3.395322     8.454148    -1.311290
 H    -8.419762    -6.210021     0.044832
 O    -9.005948    -5.662776    -0.506994
 H    -8.840063    -4.754526    -0.123349
 H    -0.299206     9.807878    -2.960545
 O    -1.233600     10.000549    -2.754590
 H    -1.307814     10.092006    -1.802170
 H     4.357806     3.994120    -3.586240
 O     3.834478     4.801199    -3.591959
 H     4.420217     5.548403    -3.350056
 H     5.475041     6.476647    -1.690246
 O     5.425130     6.717985    -2.635767
 H     6.199425     6.346730    -3.077913
 H    -0.233473     5.022082     6.247842
 O     0.475010     4.532934     5.806012
 H     1.192129     5.159613     5.545516
 H     3.374705     5.303770     5.363374
 O     2.633100     5.784568     4.966638
 H     2.580358     5.483683     4.045624
 H    -6.808108     9.249698     0.032019
 O    -6.514266     9.043482    -0.865056
 H    -6.315873     8.090423    -0.863590
 H    -1.481479    -5.070511     3.406490
 O    -1.015784    -4.970570     2.543779
 H    -0.109262    -5.271579     2.646430
 H     4.126611    -2.466586     6.221653
 O     4.133889    -2.590720     5.248270
 H     3.399584    -3.206363     5.047207
 H     6.900703    -6.491046     3.063512
 O     7.279964    -6.165151     3.889380
 H     6.833494    -5.314862     4.061777
 H     8.857391    -5.248873     3.868082
 O     9.517239    -4.537939     3.762144
 H     9.267853    -3.847123     4.388273
 H     3.485606     8.082934    -7.759042
 O     3.460580     7.521744    -6.985379
 H     2.588694     7.690041    -6.551903
 H    -0.691814    -1.523361     8.062188
 O    -0.928439    -2.170756     8.741101
 H    -0.243286    -2.843900     8.700776
 H     8.595560     4.272057    -2.021987
 O     9.282589     4.294599    -2.737256
 H     10.020278     4.772019    -2.357498
 H     6.659459     4.633479    -4.942300
 O     6.985257     4.992295    -4.095748
 H     7.925047     4.798216    -4.003854
 H     10.821542     1.924343    -3.982156
 O     10.075127     1.823633    -3.393457
 H     9.723918     2.722880    -3.205994
 H     3.012595    -2.756651     7.851518
 O     3.862679    -2.275694     7.879941
 H     3.616830    -1.343681     7.982870
 H    -2.326851    -1.600006    -8.857927
 O    -2.734200    -1.278919    -8.054423
 H    -2.020533    -0.864992    -7.522385
 H     5.318243     5.178480     1.770484
 O     5.083876     4.606895     2.512490
 H     4.114876     4.663849     2.602163
 H    -3.857709    -6.006089    -5.049951
 O    -3.031904    -5.520277    -5.106213
 H    -3.227810    -4.719954    -5.618831
 H    -6.357330     6.259447     5.051594
 O    -5.889715     7.076441     4.797484
 H    -5.748503     7.017748     3.826497
 H    -7.335603     4.225096     6.196895
 O    -7.051030     4.670536     5.389053
 H    -6.823728     3.953476     4.774893
 H    -6.905286     9.683618     2.678890
 O    -6.638561     10.092294     1.830018
 H    -7.077169     10.943280     1.800352
 H    -6.099651    -6.887823     1.352595
 O    -6.734302    -6.261400     0.953542
 H    -6.178231    -5.808575     0.278593
 H    -3.970525    -4.782606     7.453003
 O    -4.223633    -5.612479     7.011072
 H    -3.441620    -5.887502     6.518914
 H     9.630441     0.524249    -0.421757
 O     9.715132     1.482801    -0.576357
 H     10.036390     1.567291    -1.480185
 H    -7.914521    -4.602489     3.345193
 O    -6.979124    -4.418767     3.062819
 H    -6.826336    -5.029074     2.311326
 H     0.948601    -2.526345     6.852550
 O     1.420166    -3.293139     7.195755
 H     1.620125    -3.850040     6.427080
 H    -3.405297    -2.540279    -6.936559
 O    -3.847624    -3.171207    -6.349713
 H    -4.789910    -3.002936    -6.436563
 H    -8.394068     8.574617     4.038230
 O    -7.586754     9.075227     4.165098
 H    -6.934593     8.445337     4.538310
 H     8.052302    -2.219056    -5.144381
 O     7.137113    -1.935037    -5.169871
 H     6.641713    -2.576780    -4.626638
 H    -5.028662    -4.883022     5.619442
 O    -5.039091    -4.265905     4.858507
 H    -5.788103    -4.517025     4.265082
 N    -9.646035    -4.852816     3.748759
 H    -10.077167    -4.011365     3.364477
 H    -9.887280    -4.907581     4.732948
 H    -10.071961    -5.651336     3.287966
