604
grain_mol89 // -1859.829497646732 // -60.3147343435 // -897.358614100232 // -1022.78561789 // -0.0616776858 // -0.582256630439 // -0.016835810088
 H    -1.795742    -0.070023     2.397972
 O    -0.821516    -0.018600     2.508515
 H    -0.538270    -0.896345     2.858236
 H    -0.228449    -1.937389    -2.856835
 O    -0.329323    -1.934594    -1.892408
 H    -1.284171    -1.858717    -1.727888
 H    -2.746176     1.772800     0.706762
 O    -2.613992     1.117767     0.001027
 H    -1.820381     1.407143    -0.484181
 H    -3.626458     1.772084    -3.192808
 O    -3.096021     2.111324    -3.951658
 H    -2.204529     2.268083    -3.623530
 H    -0.017183    -0.657647    -0.814733
 O     0.076724     0.088400    -0.191060
 H    -0.372185    -0.188289     0.618538
 H     1.182844    -2.017495    -4.742718
 O     0.243973    -2.213453    -4.588810
 H     0.169796    -3.179573    -4.604304
 H    -4.889532     2.259473    -1.495535
 O    -4.495016     1.433808    -1.838359
 H    -3.835604     1.182959    -1.148881
 H    -3.633006     3.336663     2.284709
 O    -2.889344     2.728872     2.105778
 H    -2.140231     3.101634     2.605015
 H     2.690650     0.238058    -2.894225
 O     2.085792    -0.397610    -2.460090
 H     1.183038    -0.111435    -2.698917
 H    -0.981935     0.208247    -3.659831
 O    -0.193722     0.710453    -3.365054
 H    -0.475447     1.319535    -2.662784
 H     2.721221    -0.527069     0.635317
 O     2.662319    -1.289515     0.023566
 H     2.415608    -0.932662    -0.851012
 H    -2.767692    -0.551353    -0.688184
 O    -2.869563    -1.035047    -1.518621
 H    -3.665901    -1.593434    -1.453909
 H     2.874495     1.278786    -0.771361
 O     2.042522     1.778192    -0.690871
 H     1.334816     1.120471    -0.522505
 H     0.660928     3.109109    -3.316101
 O     1.575067     2.948384    -3.047248
 H     1.560217     2.507344    -2.178419
 H     0.269459    -4.013245    -0.477934
 O     0.071019    -4.720311    -1.132551
 H    -0.715452    -5.179159    -0.757671
 H    -6.395736     2.072874     2.759870
 O    -6.537365     2.359234     3.700142
 H    -7.275020     1.795023     4.048797
 H     1.223495    -3.682108     1.397765
 O     0.816702    -3.057232     0.770039
 H     1.491651    -2.392679     0.523730
 H    -2.905066     5.131346    -1.227189
 O    -2.725875     4.351744    -0.668609
 H    -3.612966     3.972682    -0.493467
 H    -5.477914    -1.345325     1.529093
 O    -5.192994    -0.723178     0.825683
 H    -5.270305    -1.205201    -0.003019
 H    -0.320063    -3.149750     3.080716
 O    -0.037732    -2.322277     3.506426
 H     0.910269    -2.211671     3.326581
 H     5.317619     1.085637    -1.056049
 O     4.535953     0.546258    -0.869477
 H     4.746625     0.157945     0.009206
 H     0.712563     2.419759     0.993203
 O     0.683470     2.104951     1.905897
 H     0.085772     1.336477     1.956989
 H     4.581320    -0.485506    -2.206298
 O     4.816064    -0.988730    -3.018878
 H     5.302451    -0.348684    -3.579325
 H     3.076042     3.277967    -1.006059
 O     3.946534     3.695738    -0.967767
 H     4.459505     3.393441    -1.741602
 H    -5.735484    -1.663761    -2.060878
 O    -5.205777    -2.342448    -1.588879
 H    -5.089575    -3.073793    -2.219720
 H    -4.821934    -4.136189     1.168607
 O    -5.511567    -3.525006     0.848969
 H    -5.259037    -3.259495    -0.045403
 H     2.840070     2.097994    -3.654661
 O     3.531489     1.425175    -3.823045
 H     3.631529     1.365606    -4.778775
 H    -5.341097     3.854973     3.425998
 O    -4.722131     4.417657     2.940369
 H    -4.245015     4.963293     3.617358
 H     0.820687     0.891694    -4.753724
 O     1.339266     0.764865    -5.574817
 H     1.951795     0.025850    -5.379234
 H     1.055859     5.737975    -2.415509
 O     1.840054     5.436733    -1.925425
 H     2.421158     4.983118    -2.567709
 H    -2.617901    -3.585619    -1.813678
 O    -2.788654    -3.817960    -0.885282
 H    -3.544111    -4.422328    -0.863699
 H     2.186261     5.082047    -4.619032
 O     1.322516     5.145476    -5.062337
 H     1.342843     4.432102    -5.728326
 H     7.817200     1.945482    -0.742990
 O     7.049097     1.559321    -1.202466
 H     7.438590     0.867359    -1.774699
 H     4.500320     2.852651     0.385876
 O     4.814612     2.521080     1.251578
 H     4.711076     3.283925     1.857576
 H     1.241436    -3.223440    -2.099172
 O     2.109427    -3.064541    -2.498306
 H     2.180219    -2.088264    -2.550438
 H     1.180674     4.596500    -0.691572
 O     0.709744     4.135757     0.039517
 H     0.010317     4.740081     0.345680
 H    -5.739218     0.898991     1.022999
 O    -6.243718     1.722152     1.178142
 H    -7.165385     1.464005     0.919483
 H    -2.179231    -2.694555     0.227724
 O    -1.730181    -2.099906     0.858871
 H    -0.816481    -2.428181     0.891407
 H    -3.743861    -0.343282     4.146921
 O    -3.768332    -0.445221     5.125681
 H    -4.511248    -1.044468     5.369868
 H    -6.050946    -2.931204     3.077100
 O    -5.621368    -2.063532     3.156637
 H    -4.666291    -2.275342     3.189499
 H    -2.704386    -0.542855    -3.099439
 O    -2.411842    -0.624499    -4.034719
 H    -2.236350    -1.590570    -4.084809
 H    -3.213275    -3.563224    -3.771074
 O    -2.367101    -3.160812    -3.512418
 H    -1.657074    -3.790497    -3.746204
 H     3.424621    -1.218114    -4.171755
 O     2.898627    -1.367106    -4.980633
 H     3.555432    -1.538134    -5.674790
 H     4.887377     2.259356    -6.556642
 O     4.372469     1.426724    -6.566787
 H     3.543545     1.636567    -7.004950
 H    -4.361363     1.000810     5.618292
 O    -4.880014     1.825201     5.801651
 H    -5.395171     1.950151     4.966590
 H    -3.948803    -0.156247     1.860817
 O    -3.436810     0.184926     2.614313
 H    -3.371436     1.155641     2.511732
 H    -5.682077     0.396761    -2.453618
 O    -6.197715    -0.288253    -2.927064
 H    -5.743136    -0.394448    -3.784903
 H     2.136986    -3.894936    -4.019853
 O     2.114581    -4.373473    -4.871639
 H     1.721357    -5.238456    -4.671443
 H     4.612474    -3.516009    -0.475261
 O     4.861536    -2.747922     0.084885
 H     4.087685    -2.137829     0.046617
 H    -0.213683     2.975510    -0.994500
 O    -0.940389     2.575363    -1.500604
 H    -1.670580     3.221725    -1.405343
 H     1.696988     4.435924     1.495101
 O     2.122736     4.596569     2.357177
 H     1.931872     3.813986     2.897650
 H     3.690355     1.255613     1.697007
 O     2.926155     0.665729     1.846972
 H     2.139292     1.237288     1.938826
 H     3.332298    -3.966124    -1.938922
 O     4.035319    -4.572437    -1.598741
 H     4.733649    -4.574611    -2.271939
 H     5.229723    -3.799810    -4.336610
 O     5.628916    -3.462763    -3.497340
 H     5.202421    -2.607596    -3.285489
 H    -1.170911     5.052004     1.955224
 O    -1.337957     5.588851     1.145807
 H    -1.945307     5.068490     0.558083
 H    -5.696855     3.055457     0.224913
 O    -5.232595     3.554164    -0.474987
 H    -5.697552     4.395979    -0.659105
 H     5.059478    -3.731087     3.107813
 O     4.320646    -3.575525     2.513557
 H     4.673350    -3.299196     1.637869
 H     5.879582    -1.181237     1.502310
 O     5.465401    -0.296579     1.463920
 H     6.237252     0.299639     1.522159
 H     1.874102    -6.732898    -2.903544
 O     1.724501    -6.971015    -3.843915
 H     2.612133    -7.037270    -4.225534
 H    -7.101567    -3.761097     0.614094
 O    -8.062690    -3.778209     0.384662
 H    -8.550534    -3.576520     1.213389
 H     3.251583    -2.338491     2.906180
 O     2.549775    -1.678614     3.062023
 H     2.771631    -0.879176     2.551461
 H    -1.980858     2.714220     5.089412
 O    -2.700469     3.363794     5.234054
 H    -3.472741     2.817065     5.494090
 H    -0.888619     0.937363     3.920319
 O    -0.801291     1.509214     4.716705
 H     0.034768     1.972860     4.598470
 H     0.464113     3.298550    -7.008966
 O     1.418298     3.120793    -6.856299
 H     1.436003     2.279392    -6.361846
 H     7.118136    -2.653287     4.927351
 O     6.385169    -3.126288     4.466016
 H     5.560033    -2.780053     4.881768
 H     7.980552     1.639158     1.563396
 O     7.904706     0.715071     1.867448
 H     8.419504     0.157295     1.254903
 H    -3.881052    -0.676481    -4.795936
 O    -4.798613    -0.740643    -5.156728
 H    -4.767347    -0.382931    -6.065048
 H     6.586659    -1.351691    -1.996727
 O     6.984368    -1.790099    -1.239537
 H     6.242771    -2.068014    -0.669107
 H     4.646491    -0.679358     4.547825
 O     5.057757     0.063982     4.075594
 H     5.036398    -0.119940     3.112348
 H    -0.104296     3.338052     2.788429
 O    -0.753666     3.988323     3.124858
 H    -0.471900     4.268808     4.016531
 H     8.338113    -1.087754    -0.497668
 O     9.105455    -0.689896    -0.030017
 H     9.818710    -1.341374    -0.075355
 H     9.671791    -3.593737     2.447117
 O     9.398636    -3.427992     1.518685
 H     10.176806    -3.258926     0.976429
 H    -2.402327    -2.593877     3.796593
 O    -3.002219    -2.706778     3.049791
 H    -2.530265    -2.384156     2.241390
 H    -1.935247     0.601498    -6.379272
 O    -2.575351     1.336732    -6.450747
 H    -2.858700     1.531984    -5.533253
 H    -1.085807     3.697641    -5.641153
 O    -1.179051     3.642740    -6.620633
 H    -1.750741     2.867689    -6.766228
 H    -4.391553    -6.363088    -1.196895
 O    -4.888086    -5.617167    -0.828467
 H    -5.643775    -5.468903    -1.436968
 H     2.885579    -5.777625    -1.346754
 O     2.089035    -6.341047    -1.274111
 H     1.309926    -5.724583    -1.195160
 H     3.586291    -4.305887    -5.501190
 O     4.553601    -4.284447    -5.740402
 H     4.670401    -3.556650    -6.357003
 H     7.412813     3.630909     2.163530
 O     7.362081     3.255509     1.275381
 H     6.440333     2.905451     1.203468
 H     6.751825    -3.731143     0.559214
 O     7.261143    -4.536167     0.367242
 H     8.134506    -4.350233     0.765014
 H    -7.279826    -4.628463    -2.621951
 O    -7.039246    -5.549076    -2.375409
 H    -7.674953    -5.819019    -1.684999
 H    -4.644656     6.708709     4.647705
 O    -3.717961     6.425810     4.475154
 H    -3.288404     6.263356     5.338437
 H     7.119124     3.769751     4.922742
 O     7.149319     3.352138     4.052038
 H     7.416881     2.427209     4.213351
 H    -6.087778     0.745917     6.675430
 O    -6.842273     0.189815     6.972952
 H    -6.511144    -0.721409     6.854215
 H    -0.236640    -4.934611    -2.857664
 O    -0.377551    -4.859600    -3.819025
 H    -0.950470    -5.586698    -4.095093
 H     6.639942     0.444941     4.476966
 O     7.606873     0.655101     4.457266
 H     7.848486     0.597744     3.505801
 H     5.103691    -6.614196    -3.646486
 O     4.433352    -6.818521    -4.333651
 H     4.565043    -6.161196    -5.024943
 H    -5.664275    -2.108466    -5.408153
 O    -6.261324    -2.886682    -5.522644
 H    -7.114388    -2.488363    -5.835812
 H    -7.928318     0.582285     5.731935
 O    -8.452055     0.930095     4.961228
 H    -9.017873     1.634407     5.333745
 H    -5.349452     5.675589     1.982624
 O    -5.581872     6.582726     1.693767
 H    -4.730778     7.065761     1.692900
 H     5.916670     1.634543    -3.907123
 O     6.185269     0.845865    -4.426985
 H     5.714504     0.911773    -5.260243
 H    -5.943988     6.332032     0.041675
 O    -5.936538     6.088405    -0.907542
 H    -5.041907     6.336000    -1.222144
 H     0.029391    -7.519951    -3.036259
 O    -0.686664    -7.645527    -2.402851
 H    -0.305860    -7.967943    -1.577515
 H    -2.597925    -1.551287     5.445147
 O    -1.935688    -2.262104     5.617422
 H    -1.116291    -1.776998     5.829538
 H     7.707569    -4.380541    -1.282966
 O     7.852886    -4.386883    -2.253383
 H     7.080614    -3.930711    -2.630142
 H    -8.612351    -3.179481    -3.507233
 O    -7.702330    -3.073823    -3.146421
 H    -7.140042    -2.887921    -3.913706
 H     9.026520    -3.189249    -2.628716
 O     9.649457    -2.456549    -2.819986
 H     9.130189    -1.634945    -2.755280
 H    -4.828833    -5.141391    -3.661585
 O    -4.813712    -4.175307    -3.552355
 H    -5.322136    -3.807374    -4.285641
 H    -3.572969     3.858122    -3.744096
 O    -3.308466     4.724971    -3.395258
 H    -3.594340     5.404558    -4.006903
 H    -0.168792     4.648917    -4.183285
 O    -0.816386     3.947806    -3.990305
 H    -1.619740     4.384067    -3.641200
 H    -1.960978    -4.030767     5.348192
 O    -2.225204    -4.904268     5.020009
 H    -3.154421    -4.785712     4.754867
 H    -2.406637     8.248839    -4.022223
 O    -2.588115     7.291134    -4.113229
 H    -2.359548     7.039790    -5.035274
 H    -3.162227     7.295633     2.973421
 O    -3.061522     7.478267     2.025630
 H    -2.443412     6.791824     1.699322
 H     4.712747     1.721497     4.251722
 O     4.543173     2.669687     4.060783
 H     5.416461     3.043136     3.836538
 H     7.789185    -1.493989     6.463477
 O     8.258079    -1.700930     5.631529
 H     8.212221    -0.864327     5.127843
 H     5.886693    -1.251630     7.920254
 O     6.591612    -0.722489     7.533982
 H     6.130739     0.010927     7.068822
 H    -1.610803     5.469554    -6.661728
 O    -1.769154     6.411012    -6.492375
 H    -0.904681     6.851686    -6.574951
 H    -8.240906    -0.273629     3.693043
 O    -8.026088    -0.834431     2.932581
 H    -7.118571    -1.159725     3.066769
 H    -8.466410    -0.051843    -0.072019
 O    -8.527499     0.604892     0.640914
 H    -8.515062     0.082593     1.461491
 H     0.733992    -0.423745     5.903228
 O    -0.111688    -0.501903     6.403677
 H    -0.621545     0.252830     6.061805
 H    -0.501385     6.950414    -1.856720
 O    -0.425614     6.546905    -2.744460
 H    -1.271381     6.718963    -3.216757
 H     0.780407    -8.015507     0.736876
 O    -0.113600    -8.285895     0.477619
 H    -0.588270    -8.339122     1.335537
 H     1.869703     2.798881     5.201657
 O     1.910124     2.499533     4.269018
 H     2.857172     2.534997     4.041305
 H    -7.657000    -5.792778    -5.647828
 O    -6.754291    -5.639599    -5.972160
 H    -6.621199    -4.683373    -5.934666
 H     3.216881    -7.510016     1.274276
 O     2.324991    -7.162140     1.197597
 H     2.260969    -6.849578     0.258523
 H     3.473492     5.577783    -7.479830
 O     3.648360     4.617107    -7.575170
 H     2.821931     4.155783    -7.363817
 H    -0.614271     6.959362     0.311017
 O    -0.304653     7.658361    -0.289233
 H    -0.994803     8.336719    -0.272901
 H     4.269924     3.831585     5.227105
 O     4.149852     4.493684     5.950393
 H     5.019167     4.581719     6.350342
 H     7.447627     3.079508     6.917175
 O     6.905775     3.905814     6.808623
 H     7.367675     4.586577     7.296673
 H     4.289585    -7.961151    -0.774667
 O     4.780632    -7.403021    -0.149500
 H     5.226458    -6.761184    -0.725706
 H     6.957145    -5.887273    -2.400393
 O     6.199311    -6.499786    -2.358937
 H     6.552205    -7.402559    -2.261344
 H    -8.982043    -2.248693     2.770658
 O    -9.440506    -3.082929     2.534018
 H    -10.170565    -2.804519     1.955618
 H    -2.820175     8.693664     0.703450
 O    -2.661298     9.032720    -0.192595
 H    -3.464124     9.573556    -0.398167
 H     7.925719     0.951795     7.523451
 O     8.269058     1.643159     6.947030
 H     8.152796     1.293760     6.046533
 H    -2.437572     5.379742     7.558981
 O    -2.255114     5.472698     6.619930
 H    -2.427069     4.562351     6.199585
 H    -6.027486    -6.617796    -3.385576
 O    -5.336790    -6.814993    -4.044434
 H    -5.760208    -6.556713    -4.891569
 H     6.811676    -2.617508     2.895511
 O     6.955684    -2.375333     1.961631
 H     7.908802    -2.437803     1.802358
 H     2.272058     6.711375    -0.954655
 O     2.495913     7.468987    -0.368674
 H     1.636736     7.797028    -0.075855
 H    -3.921270    -7.506248    -2.861544
 O    -3.379891    -7.522753    -2.063937
 H    -2.459253    -7.633053    -2.362359
 H     0.958432     6.578401    -5.790670
 O     0.781507     7.437218    -6.240549
 H     0.765656     8.086686    -5.507533
 H    -8.146655    -1.848906    -1.885191
 O    -8.467823    -1.565792    -1.015179
 H    -8.239914    -2.336679    -0.448122
 H    -3.293721     6.984162    -2.472940
 O    -3.412657     6.824192    -1.527011
 H    -3.140139     7.643667    -1.064026
 H     2.888426    -4.475843     2.468224
 O     1.979969    -4.836079     2.457517
 H     2.064498    -5.733955     2.075410
 H    -8.620416    -1.052871    -5.277975
 O    -8.498474    -1.645521    -6.056269
 H    -8.205262    -1.056281    -6.773518
 H     7.693590    -0.007303    -3.733302
 O     8.318587    -0.014987    -2.989945
 H     8.984742     0.659005    -3.185813
 H     4.141723     6.732587    -0.154496
 O     4.867268     6.107111    -0.311423
 H     4.430688     5.256128    -0.538477
 H    -7.818061    -0.088061    -3.458550
 O    -8.703774    -0.098955    -3.876664
 H    -9.322125    -0.327338    -3.181166
 H     6.186650     3.823375    -3.233060
 O     5.717300     3.036380    -2.899691
 H     6.293815     2.638529    -2.204902
 H    -1.161125    -6.960216     0.189852
 O    -1.783899    -6.234282    -0.018558
 H    -2.353888    -6.566288    -0.718974
 H    -3.793029    -7.866105     1.035696
 O    -4.047767    -7.595149     1.920762
 H    -3.854146    -6.628373     1.968622
 H    -2.754176    -5.137253     1.179316
 O    -3.485639    -5.018768     1.806700
 H    -3.232995    -4.282491     2.399992
 H     5.284508    -6.014017     5.064213
 O     4.541576    -5.795918     4.498302
 H     4.864601    -5.903438     3.587990
 H    -9.292869    -6.490919    -4.041411
 O    -9.291415    -6.052008    -4.923096
 H    -9.908890    -6.546206    -5.462634
 H     6.394554    -5.540369     1.474494
 O     5.876052    -6.126472     2.063465
 H     5.449325    -6.740158     1.453754
 H    -1.267734    -6.735730     2.657304
 O    -1.392438    -7.696978     2.729942
 H    -2.349914    -7.839029     2.699576
 H    -9.821510    -4.349383    -4.686782
 O    -9.974387    -3.420301    -4.445402
 H    -9.730965    -2.883697    -5.211922
 H     0.453647     7.863048    -3.458026
 O     0.769593     8.694386    -3.869727
 H     1.657497     8.860231    -3.490199
 H    -8.835211    -8.200978    -2.604774
 O    -9.436850    -7.455897    -2.641441
 H    -9.350282    -6.999295    -1.785017
 H     1.987585     0.771043     4.582493
 O     2.085301    -0.066368     5.074153
 H     2.328459    -0.758268     4.422895
 H    -6.295143     0.068141    -7.807283
 O    -7.258713     0.139110    -7.708611
 H    -7.438029     1.044161    -7.450764
 H     6.414487     3.812845    -7.230582
 O     5.805106     3.755973    -6.494607
 H     4.959219     4.191777    -6.822461
 H    -5.496651     10.172308     0.226824
 O    -4.981743     10.181993    -0.591069
 H    -5.541485     9.673778    -1.211207
 H    -0.572646    -1.292261    -5.776796
 O    -0.727366    -0.656813    -6.509120
 H     0.044845    -0.062178    -6.448648
 H     4.995280    -0.541091    -6.826111
 O     5.089248    -1.467220    -6.578543
 H     5.923833    -1.539979    -6.082616
 H     2.809439    -8.878638    -2.373047
 O     3.764339    -8.789294    -2.343874
 H     4.001796    -8.216762    -3.088270
 H    -3.954899    -0.729151    -8.008893
 O    -4.486888     0.022814    -7.706945
 H    -3.828406     0.683713    -7.393134
 H     1.132171     3.894296     6.587071
 O     1.881131     3.318539     6.834898
 H     2.689314     3.852309     6.720978
 H    -11.236345    -2.879820    -0.268472
 O    -10.848151    -2.224826     0.311828
 H    -10.109312    -1.829253    -0.183135
 H    -10.441315     3.349959     6.534487
 O    -9.543905     3.246712     6.201201
 H    -8.938091     3.159760     7.002362
 H     6.436156    -8.983268    -0.790760
 O     6.548119    -9.122577    -1.736158
 H     5.676648    -9.373084    -2.067527
 H     6.576575     5.312420    -0.757814
 O     7.235268     4.653630    -1.000946
 H     7.413249     4.144752    -0.183780
 H    -5.418147    -2.853335     5.728624
 O    -5.460454    -2.072980     6.323531
 H    -4.859108    -2.292350     7.055481
 H     2.417049     1.689963     7.480385
 O     2.902449     0.854517     7.428294
 H     2.613554     0.441165     6.587453
 H    -2.800329    -2.749904     7.019419
 O    -3.305954    -2.875056     7.851017
 H    -2.712240    -2.515418     8.525715
 H     5.595904     2.286802     6.749884
 O     5.332085     1.401521     6.492757
 H     4.439373     1.243244     6.865113
 H     1.992974    -4.237660     4.262777
 O     2.451187    -4.144120     5.110481
 H     3.163714    -4.805774     5.064432
 H     10.575164    -2.589113    -1.460581
 O     11.046585    -2.566309    -0.583862
 H     11.981074    -2.526550    -0.779970
 H     3.857172     8.257006    -2.999854
 O     3.157160     8.827833    -2.659671
 H     2.964132     8.496268    -1.763756
 H    -7.999267    -6.630489     0.293384
 O    -8.635629    -6.235152    -0.324252
 H    -8.607507    -5.278468    -0.076106
 H    -0.768526     9.553015    -3.541071
 O    -1.715208     9.706085    -3.359432
 H    -1.810361     9.847539    -2.415068
 H     4.200929     3.973260    -3.765439
 O     3.635462     4.749241    -3.823671
 H     4.176744     5.539471    -3.617744
 H     5.152355     6.615719    -1.998967
 O     5.105572     6.800136    -2.957261
 H     5.905880     6.446888    -3.366709
 H    -0.612438     5.313179     5.921226
 O     0.130502     4.834537     5.526367
 H     0.821538     5.479129     5.238453
 H     2.994429     5.731839     5.080168
 O     2.233029     6.146209     4.647357
 H     2.214493     5.794145     3.743161
 H    -7.291240     8.812326    -0.614091
 O    -6.967094     8.574680    -1.492591
 H    -6.721227     7.634287    -1.435708
 H    -1.264741    -4.985161     3.653589
 O    -0.793354    -4.906783     2.792731
 H     0.126246    -5.153347     2.921848
 H     4.143712    -1.925698     6.393440
 O     4.173670    -2.103262     5.428865
 H     3.477557    -2.768960     5.253047
 H     7.181912    -5.966506     3.511255
 O     7.528779    -5.574377     4.322443
 H     7.034870    -4.741134     4.439345
 H     9.055616    -4.576969     4.271088
 O     9.678199    -3.838343     4.133785
 H     9.381914    -3.127909     4.715933
 H     3.185459     7.765840    -8.177986
 O     3.176800     7.249211    -7.373525
 H     2.289695     7.394367    -6.963274
 H    -0.747651    -1.140861     8.107359
 O    -0.962414    -1.759576     8.819349
 H    -0.242802    -2.396975     8.828424
 H     8.390316     4.567988    -2.159081
 O     9.087335     4.587169    -2.864591
 H     9.792026     5.124443    -2.502542
 H     6.488467     4.658429    -5.122692
 O     6.779895     5.081268    -4.293290
 H     7.727058     4.944258    -4.177373
 H     10.771582     2.236516    -3.948890
 O     10.021525     2.129367    -3.365970
 H     9.619837     3.017510    -3.235922
 H     3.018644    -2.183087     8.021521
 O     3.841099    -1.655769     8.033989
 H     3.544382    -0.734172     8.080140
 H    -2.085078    -2.263236    -8.801664
 O    -2.522466    -1.919266    -8.023840
 H    -1.841018    -1.438218    -7.506439
 H     5.004563     5.508514     1.527832
 O     4.787289     4.968927     2.298558
 H     3.815239     4.978435     2.369885
 H    -3.444473    -6.522847    -4.768507
 O    -2.644866    -5.996818    -4.841414
 H    -2.875036    -5.238885    -5.401977
 H    -6.941389     6.190438     4.383118
 O    -6.374310     6.983889     4.231865
 H    -6.172426     6.917914     3.265758
 H    -8.592077     4.399822     4.995093
 O    -7.931500     4.749768     4.371512
 H    -7.500379     3.952978     4.008968
 H    -7.456115     9.390450     2.005307
 O    -7.192411     9.766524     1.140663
 H    -7.681603     10.585144     1.050901
 H    -5.824596    -7.036620     1.717999
 O    -6.438423    -6.429852     1.275849
 H    -5.890884    -5.994449     0.588032
 H    -3.841537    -4.602118     7.640624
 O    -4.047015    -5.461584     7.230947
 H    -3.238028    -5.729994     6.780258
 H     9.594981     0.977848    -0.331626
 O     9.630887     1.929365    -0.539605
 H     9.963286     1.980086    -1.441947
 H    -7.914756    -4.291605     3.154444
 O    -6.984917    -4.539522     3.187756
 H    -6.827152    -5.195952     2.479510
 H     0.963272    -2.121128     6.980740
 O     1.467823    -2.841065     7.374524
 H     1.711518    -3.428771     6.642202
 H    -3.145561    -3.149825    -6.845126
 O    -3.562858    -3.769043    -6.228354
 H    -4.511380    -3.658696    -6.338107
 H    -8.907338     8.284998     3.389385
 O    -8.129080     8.830060     3.516936
 H    -7.460155     8.244647     3.929306
 H     8.246774    -2.109736    -4.911324
 O     7.318436    -1.876987    -4.965164
 H     6.848602    -2.513337    -4.393631
 H    -4.901872    -4.884781     5.773257
 O    -4.932569    -4.326605     4.971846
 H    -5.681106    -4.596927     4.420365
 N    -7.675018     2.893153     8.162793
 H    -7.513211     1.888034     8.211444
 H    -7.801194     3.229121     9.113011
 H    -6.811372     3.301574     7.813900
