604
grain_mol23 // -1717.108119571344 // -50.1600904262 // -744.487687057544 // -1022.78052294 // -0.0489331419 // -0.583233140141 // -0.013975084145
 H    -1.740572     0.005050     2.485720
 O    -0.760855     0.017708     2.540404
 H    -0.492564    -0.869167     2.878290
 H    -0.539306    -1.922520    -2.842875
 O    -0.587581    -1.916714    -1.874389
 H    -1.528001    -1.802177    -1.658173
 H    -2.709294     1.885118     0.845613
 O    -2.643790     1.225310     0.134967
 H    -1.866411     1.482064    -0.393481
 H    -3.803069     1.917065    -2.999619
 O    -3.302863     2.235080    -3.787343
 H    -2.389175     2.357610    -3.509312
 H    -0.166288    -0.651988    -0.818122
 O    -0.011084     0.091102    -0.203472
 H    -0.421779    -0.168067     0.631810
 H     0.760887    -2.057514    -4.802896
 O    -0.175143    -2.217214    -4.597725
 H    -0.286806    -3.179763    -4.606837
 H    -4.950563     2.454153    -1.237594
 O    -4.609307     1.612611    -1.597950
 H    -3.921594     1.337947    -0.945884
 H    -3.443196     3.484496     2.472456
 O    -2.738495     2.846402     2.249128
 H    -1.947560     3.187150     2.705963
 H     2.455875     0.136338    -3.045502
 O     1.850776    -0.475428    -2.578517
 H     0.948595    -0.152799    -2.767215
 H    -1.252305     0.251543    -3.608023
 O    -0.430133     0.722264    -3.358480
 H    -0.647877     1.341881    -2.642687
 H     2.651808    -0.628806     0.478284
 O     2.527174    -1.388564    -0.127511
 H     2.248611    -1.021589    -0.988106
 H    -2.898565    -0.437078    -0.540828
 O    -3.066248    -0.916586    -1.362985
 H    -3.878279    -1.443943    -1.252449
 H     2.797823     1.170192    -0.937749
 O     1.990694     1.701226    -0.815932
 H     1.268730     1.072061    -0.605338
 H     0.518921     3.085037    -3.361649
 O     1.439627     2.888156    -3.144731
 H     1.456835     2.449108    -2.274804
 H     0.007431    -4.015718    -0.489996
 O    -0.255255    -4.714756    -1.130691
 H    -1.036857    -5.141941    -0.711478
 H    -6.145607     2.325794     3.089410
 O    -6.174303     2.553121     4.055751
 H    -6.925783     2.049194     4.425502
 H     1.075404    -3.721299     1.329119
 O     0.658591    -3.081654     0.723243
 H     1.344437    -2.443574     0.438705
 H    -2.843316     5.247205    -1.083956
 O    -2.664656     4.460158    -0.535728
 H    -3.554351     4.116252    -0.311316
 H    -5.511716    -1.125602     1.822159
 O    -5.245135    -0.512818     1.104011
 H    -5.383459    -0.991318     0.281098
 H    -0.350077    -3.129141     3.092554
 O    -0.013439    -2.314031     3.501775
 H     0.926732    -2.238903     3.269191
 H     5.209941     0.881748    -1.357562
 O     4.420213     0.371365    -1.128101
 H     4.664555    -0.022875    -0.260355
 H     0.782786     2.395976     0.939373
 O     0.790960     2.082431     1.852922
 H     0.167749     1.338039     1.938053
 H     4.352164    -0.660601    -2.461325
 O     4.520325    -1.172720    -3.285185
 H     5.000378    -0.552471    -3.872679
 H     3.062970     3.158914    -1.189323
 O     3.948604     3.544984    -1.202308
 H     4.407025     3.220361    -2.000739
 H    -5.979492    -1.432708    -1.745788
 O    -5.453127    -2.131861    -1.300663
 H    -5.398967    -2.867053    -1.935504
 H    -4.986870    -3.938467     1.434898
 O    -5.668937    -3.300497     1.152892
 H    -5.455795    -3.045414     0.245205
 H     2.635644     1.989039    -3.818084
 O     3.288992     1.288964    -4.023108
 H     3.334601     1.226339    -4.982728
 H    -5.002114     4.042520     3.736686
 O    -4.432266     4.605102     3.201675
 H    -3.878263     5.142615     3.807218
 H     0.513205     0.863143    -4.801300
 O     0.979114     0.714958    -5.649907
 H     1.573117    -0.046652    -5.486123
 H     1.066240     5.696466    -2.491809
 O     1.863679     5.365140    -2.044688
 H     2.391016     4.888825    -2.716221
 H    -2.930419    -3.475788    -1.665714
 O    -3.060202    -3.700346    -0.728708
 H    -3.835438    -4.275784    -0.664774
 H     2.046193     4.996631    -4.751556
 O     1.162461     5.093658    -5.147097
 H     1.118583     4.379897    -5.811415
 H     7.754057     1.643032    -1.183410
 O     6.948782     1.286825    -1.601599
 H     7.279898     0.579370    -2.190957
 H     4.543490     2.682279     0.124041
 O     4.891318     2.332661     0.968900
 H     4.854793     3.094278     1.584218
 H     0.918340    -3.264614    -2.164035
 O     1.768150    -3.140517    -2.611502
 H     1.874859    -2.167719    -2.669323
 H     1.240774     4.551086    -0.774399
 O     0.791349     4.108174    -0.019275
 H     0.136630     4.740900     0.326195
 H    -5.712009     1.129964     1.327865
 O    -6.175832     1.972100     1.508943
 H    -7.118925     1.748905     1.301747
 H    -2.345258    -2.602725     0.346134
 O    -1.840284    -2.026280     0.951221
 H    -0.938925    -2.388485     0.933567
 H    -3.596272    -0.194415     4.334417
 O    -3.566369    -0.303778     5.312418
 H    -4.324897    -0.860376     5.601173
 H    -6.058799    -2.688414     3.405379
 O    -5.595119    -1.836433     3.461058
 H    -4.647530    -2.082720     3.439732
 H    -2.969085    -0.432018    -2.951975
 O    -2.733242    -0.525650    -3.901931
 H    -2.597326    -1.497624    -3.959134
 H    -3.631648    -3.430773    -3.587763
 O    -2.757857    -3.061759    -3.375921
 H    -2.086329    -3.718345    -3.647074
 H     3.060226    -1.346946    -4.358766
 O     2.484800    -1.475910    -5.137010
 H     3.095255    -1.672438    -5.865867
 H     4.524150     2.069117    -6.828868
 O     3.976922     1.257463    -6.809375
 H     3.133881     1.500424    -7.200981
 H    -4.034547     1.153479     5.826925
 O    -4.492873     1.994970     6.081380
 H    -5.072474     2.211618     5.323170
 H    -3.921641     0.006963     2.066628
 O    -3.357811     0.326594     2.791663
 H    -3.256914     1.294125     2.684512
 H    -5.866995     0.623703    -2.145450
 O    -6.435245    -0.040356    -2.587775
 H    -6.032920    -0.164883    -3.469110
 H     1.679507    -3.971408    -4.129850
 O     1.590584    -4.449092    -4.977838
 H     1.176369    -5.298179    -4.753678
 H     4.359149    -3.689466    -0.727411
 O     4.668284    -2.931871    -0.183629
 H     3.918578    -2.291221    -0.180705
 H    -0.230561     2.985937    -0.995834
 O    -0.999469     2.614262    -1.460144
 H    -1.696661     3.289471    -1.326357
 H     1.870402     4.369666     1.381625
 O     2.346935     4.515983     2.218833
 H     2.160137     3.740741     2.770850
 H     3.747449     1.113657     1.483002
 O     2.968289     0.554238     1.671079
 H     2.212686     1.157513     1.808760
 H     2.984086    -4.089153    -2.117919
 O     3.679718    -4.723485    -1.815947
 H     4.340195    -4.751861    -2.525818
 H     4.751246    -3.997588    -4.616224
 O     5.208776    -3.676615    -3.800995
 H     4.829102    -2.804863    -3.568045
 H    -0.939722     5.100313     1.999461
 O    -1.129376     5.641723     1.197821
 H    -1.788834     5.145912     0.647400
 H    -5.630193     3.283604     0.523304
 O    -5.187700     3.761955    -0.203589
 H    -5.625650     4.623369    -0.362821
 H     4.995913    -3.918223     2.826243
 O     4.231172    -3.738203     2.272984
 H     4.545239    -3.474277     1.378833
 H     5.825659    -1.405394     1.170230
 O     5.443674    -0.505998     1.150084
 H     6.239337     0.061111     1.169580
 H     1.367743    -6.796893    -2.993463
 O     1.156989    -7.029690    -3.923441
 H     2.018997    -7.130204    -4.353387
 H    -7.276198    -3.475260     1.004964
 O    -8.248804    -3.454184     0.829299
 H    -8.681644    -3.236187     1.683326
 H     3.235396    -2.458338     2.719399
 O     2.567712    -1.772883     2.910370
 H     2.793745    -0.981015     2.389216
 H    -1.747904     2.801870     5.052453
 O    -2.448298     3.462502     5.207191
 H    -3.187990     2.981071     5.623714
 H    -0.710258     0.978089     3.953724
 O    -0.556666     1.543190     4.743985
 H     0.287685     1.976777     4.578915
 H     0.126583     3.281246    -7.039029
 O     1.079931     3.065929    -6.939216
 H     1.092103     2.224817    -6.444083
 H     7.192287    -2.918149     4.527643
 O     6.417973    -3.366041     4.108541
 H     5.631007    -2.988613     4.567623
 H     8.031966     1.331997     1.113323
 O     7.937517     0.410469     1.420545
 H     8.396967    -0.164664     0.781522
 H    -4.242161    -0.520105    -4.580133
 O    -5.180274    -0.548294    -4.889698
 H    -5.184787    -0.192025    -5.799178
 H     6.330279    -1.603203    -2.359904
 O     6.751165    -2.060331    -1.626753
 H     6.032322    -2.305975    -1.014023
 H     4.782208    -0.862128     4.275397
 O     5.192331    -0.131737     3.784151
 H     5.112460    -0.309732     2.823750
 H     0.102928     3.346572     2.775854
 O    -0.501808     4.020673     3.146404
 H    -0.160611     4.289309     4.021195
 H     8.170301    -1.409809    -0.961711
 O     8.977854    -1.041931    -0.539710
 H     9.660819    -1.721519    -0.621315
 H     9.565232    -3.963809     1.912612
 O     9.248217    -3.790610     0.999669
 H     10.001210    -3.650337     0.415390
 H    -2.368133    -2.491924     3.921245
 O    -3.013119    -2.580351     3.209438
 H    -2.573180    -2.277670     2.375291
 H    -2.337756     0.680597    -6.271788
 O    -2.952354     1.439778    -6.309559
 H    -3.175917     1.646673    -5.378236
 H    -1.328701     3.741557    -5.588765
 O    -1.478342     3.690038    -6.561498
 H    -2.086767     2.937821    -6.673412
 H    -4.774884    -6.181368    -0.944931
 O    -5.221784    -5.417082    -0.551205
 H    -6.002424    -5.238934    -1.118667
 H     2.500218    -5.881668    -1.497806
 O     1.687298    -6.413420    -1.379691
 H     0.938818    -5.766697    -1.259280
 H     3.027330    -4.439127    -5.687924
 O     3.979862    -4.456314    -5.980351
 H     4.091437    -3.733170    -6.603382
 H     7.579146     3.335526     1.737447
 O     7.464880     2.970357     0.849607
 H     6.528207     2.656222     0.830853
 H     6.542999    -3.988094     0.188969
 O     7.008484    -4.812714    -0.029915
 H     7.909053    -4.661139     0.318833
 H    -7.667628    -4.334422    -2.213428
 O    -7.450377    -5.263808    -1.978539
 H    -8.056969    -5.508834    -1.253792
 H    -4.138551     6.948803     4.859437
 O    -3.265144     6.591738     4.610280
 H    -2.764178     6.391888     5.415787
 H     7.436943     3.521138     4.476047
 O     7.410443     3.080440     3.612065
 H     7.645776     2.150339     3.785141
 H    -5.612510     1.133517     7.028397
 O    -6.383943     0.612847     7.351930
 H    -6.130244    -0.316927     7.228137
 H    -0.664954    -4.916962    -2.835742
 O    -0.856665    -4.836802    -3.787879
 H    -1.471095    -5.541663    -4.030014
 H     6.809033     0.194902     4.102261
 O     7.781251     0.361759     4.031262
 H     7.966646     0.298599     3.068490
 H     4.553306    -6.805071    -3.913652
 O     3.838617    -6.983256    -4.562448
 H     3.957649    -6.331483    -5.261277
 H    -6.110823    -1.880884    -5.089858
 O    -6.743783    -2.634959    -5.168735
 H    -7.596157    -2.203501    -5.436120
 H    -7.506222     0.904540     6.163046
 O    -8.081668     1.232113     5.426222
 H    -8.670722     1.879222     5.817661
 H    -5.077987     5.879916     2.263833
 O    -5.304657     6.791087     1.986833
 H    -4.439342     7.247901     1.935470
 H     5.673541     1.405125    -4.238302
 O     5.881255     0.606341    -4.770774
 H     5.368091     0.691174    -5.576792
 H    -5.755905     6.566175     0.350731
 O    -5.812825     6.321388    -0.596543
 H    -4.928417     6.533958    -0.962892
 H    -0.511172    -7.510802    -3.022463
 O    -1.195716    -7.608665    -2.350425
 H    -0.782466    -7.945059    -1.546542
 H    -2.429186    -1.447475     5.574445
 O    -1.786551    -2.183166     5.714924
 H    -0.939446    -1.727543     5.879667
 H     7.369267    -4.674775    -1.702022
 O     7.459880    -4.688162    -2.679105
 H     6.687339    -4.200505    -3.013454
 H    -8.989393    -2.834533    -3.027376
 O    -8.057796    -2.763862    -2.716576
 H    -7.531153    -2.601381    -3.514032
 H     8.657295    -3.536766    -3.121612
 O     9.296864    -2.829425    -3.349578
 H     8.814905    -1.987863    -3.257483
 H    -5.299130    -4.943898    -3.385236
 O    -5.241552    -3.979185    -3.278265
 H    -5.773706    -3.591717    -3.984123
 H    -3.698857     3.999585    -3.558683
 O    -3.383563     4.855423    -3.225427
 H    -3.673721     5.545873    -3.822753
 H    -0.295743     4.655653    -4.185823
 O    -0.959762     3.981243    -3.956440
 H    -1.723629     4.449374    -3.563170
 H    -1.897318    -3.944913     5.450034
 O    -2.215440    -4.807322     5.140063
 H    -3.151618    -4.650175     4.925440
 H    -2.379298     8.341032    -3.909571
 O    -2.604059     7.391412    -3.988723
 H    -2.435488     7.131132    -4.921130
 H    -2.783998     7.424124     3.112472
 O    -2.734341     7.597879     2.157524
 H    -2.159091     6.888733     1.804305
 H     4.975572     1.615070     4.112582
 O     4.797818     2.530970     3.800838
 H     5.677212     2.820400     3.472002
 H     7.985697    -1.785074     6.023046
 O     8.401579    -2.013033     5.168671
 H     8.361639    -1.172628     4.668654
 H     6.532308    -1.529561     7.820032
 O     7.068004    -0.963828     7.249957
 H     6.416577    -0.300274     6.873832
 H    -1.839269     5.532457    -6.582655
 O    -1.951488     6.479448    -6.407454
 H    -1.076118     6.885908    -6.537808
 H    -8.107871     0.035939     4.133299
 O    -7.955439    -0.520879     3.356863
 H    -7.055068    -0.882951     3.440523
 H    -8.531580     0.287799     0.384048
 O    -8.529710     0.944269     1.100367
 H    -8.489816     0.417596     1.916842
 H     0.955799    -0.451842     5.841739
 O     0.139917    -0.493485     6.393287
 H    -0.355667     0.283202     6.080165
 H    -0.408974     6.969135    -1.849780
 O    -0.399142     6.563045    -2.739727
 H    -1.262362     6.768343    -3.164274
 H     0.427090    -8.034567     0.703946
 O    -0.489955    -8.269822     0.495535
 H    -0.917677    -8.304468     1.378614
 H     2.190152     2.730940     5.078396
 O     2.164248     2.424843     4.148230
 H     3.098103     2.427844     3.865723
 H    -8.256441    -5.483907    -5.211118
 O    -7.367673    -5.366505    -5.584952
 H    -7.195107    -4.416263    -5.557161
 H     2.907309    -7.624813     1.105871
 O     2.026420    -7.243197     1.077020
 H     1.923828    -6.927905     0.142277
 H     3.192196     5.440547    -7.680657
 O     3.323553     4.473829    -7.783997
 H     2.492931     4.045326    -7.525398
 H    -0.401379     6.983200     0.321153
 O    -0.099819     7.668849    -0.298390
 H    -0.760454     8.374064    -0.244000
 H     4.724224     3.664433     4.983182
 O     4.622090     4.410988     5.644168
 H     5.512104     4.535152     5.995947
 H     8.073050     2.984888     6.388610
 O     7.737137     3.910118     6.215391
 H     8.519440     4.471571     6.239786
 H     3.846921    -8.118271    -0.998931
 O     4.392961    -7.580055    -0.402641
 H     4.831346    -6.955890    -1.003488
 H     6.499344    -6.150406    -2.772929
 O     5.721904    -6.733618    -2.689172
 H     6.044872    -7.649066    -2.608815
 H    -8.975561    -1.892933     3.254515
 O    -9.482059    -2.707296     3.050791
 H    -10.228387    -2.401121     2.507900
 H    -2.514151     8.801382     0.829715
 O    -2.391246     9.134672    -0.074729
 H    -3.181592     9.707111    -0.236280
 H     8.335061     0.719309     7.046529
 O     8.685634     1.399255     6.446027
 H     8.478116     1.027372     5.567534
 H    -2.089884     5.317525     7.560553
 O    -1.825912     5.510093     6.661981
 H    -2.047803     4.695350     6.119349
 H    -6.538012    -6.372233    -3.040206
 O    -5.893128    -6.596708    -3.735614
 H    -6.351883    -6.321893    -4.558781
 H     6.775260    -2.874543     2.515565
 O     6.875331    -2.643769     1.573044
 H     7.815765    -2.738248     1.362901
 H     2.397990     6.622081    -1.101550
 O     2.682695     7.371612    -0.531941
 H     1.854527     7.731842    -0.191580
 H    -4.442089    -7.342413    -2.630921
 O    -3.859144    -7.379768    -1.863919
 H    -2.961144    -7.526260    -2.211907
 H     0.815315     6.539632    -5.857526
 O     0.647087     7.404630    -6.298921
 H     0.697574     8.054262    -5.567510
 H    -8.383267    -1.521990    -1.436007
 O    -8.645199    -1.227215    -0.549933
 H    -8.415245    -2.006713     0.004404
 H    -3.228230     7.112614    -2.310704
 O    -3.302963     6.957592    -1.359437
 H    -2.971745     7.765091    -0.913276
 H     2.764035    -4.579709     2.308396
 O     1.842955    -4.904528     2.348581
 H     1.871705    -5.805048     1.964559
 H    -9.011674    -0.709275    -4.800067
 O    -8.956666    -1.306703    -5.582141
 H    -8.679948    -0.729970    -6.316008
 H     7.390684    -0.304162    -4.159431
 O     8.055673    -0.338267    -3.452458
 H     8.735428     0.309896    -3.685187
 H     4.308365     6.570426    -0.407284
 O     4.998989     5.918419    -0.607201
 H     4.518225     5.083780    -0.803334
 H    -8.072683     0.223323    -3.030166
 O    -8.980320     0.247829    -3.397849
 H    -9.567468     0.042074    -2.669101
 H     6.065098     3.582169    -3.585276
 O     5.584534     2.813502    -3.226365
 H     6.181937     2.394040    -2.562319
 H    -1.498881    -6.904064     0.263321
 O    -2.104328    -6.154914     0.088331
 H    -2.723300    -6.464449    -0.580034
 H    -4.112996    -7.706461     1.255140
 O    -4.309868    -7.424622     2.151519
 H    -4.074649    -6.466575     2.186187
 H    -2.963047    -5.020362     1.334228
 O    -3.653721    -4.872209     2.000519
 H    -3.338914    -4.146558     2.576972
 H     5.239201    -6.207902     4.771742
 O     4.473146    -5.965517     4.247971
 H     4.741735    -6.082918     3.321273
 H    -9.827258    -6.117414    -3.515386
 O    -9.857646    -5.678594    -4.396526
 H    -10.521974    -6.148901    -4.900618
 H     6.165962    -5.780771     1.126420
 O     5.658326    -6.346736     1.744030
 H     5.175013    -6.942891     1.159790
 H    -1.459853    -6.675478     2.731824
 O    -1.618723    -7.631020     2.813969
 H    -2.581148    -7.734930     2.837029
 H    -10.306516    -3.956511    -4.135565
 O    -10.409518    -3.022106    -3.888253
 H    -10.187616    -2.495672    -4.668291
 H     0.490585     7.843585    -3.503603
 O     0.815478     8.661708    -3.934413
 H     1.728920     8.792545    -3.604716
 H    -9.357829    -7.844137    -2.102908
 O    -9.931163    -7.076186    -2.107179
 H    -9.779281    -6.623725    -1.257751
 H     2.190686     0.698316     4.457537
 O     2.271178    -0.146782     4.940030
 H     2.458054    -0.844667     4.277141
 H    -6.787409     0.318078    -7.455852
 O    -7.740563     0.427004    -7.304169
 H    -7.869455     1.338725    -7.039762
 H     6.071179     3.561329    -7.590304
 O     5.501384     3.528090    -6.821905
 H     4.656721     3.997218    -7.103174
 H    -5.152389     10.384541     0.497716
 O    -4.684099     10.374749    -0.347768
 H    -5.295864     9.888484    -0.935040
 H    -1.019140    -1.265118    -5.740887
 O    -1.189515    -0.624191    -6.464956
 H    -0.392297    -0.060265    -6.448340
 H     4.507124    -0.732895    -7.096923
 O     4.578216    -1.662185    -6.853528
 H     5.435209    -1.767654    -6.403798
 H     2.245956    -8.977128    -2.511198
 O     3.203812    -8.926088    -2.534731
 H     3.422631    -8.362813    -3.291823
 H    -4.494925    -0.570225    -7.784176
 O    -4.979917     0.201857    -7.455014
 H    -4.279665     0.836520    -7.179392
 H     1.624128     3.872506     6.539493
 O     2.389086     3.282685     6.699128
 H     3.199740     3.805883     6.493852
 H    -11.417008    -2.431601     0.352870
 O    -10.971418    -1.791218     0.907782
 H    -10.245896    -1.427346     0.370222
 H    -7.195393     2.322969     7.710240
 O    -7.654059     3.170483     7.618451
 H    -7.741476     3.532206     8.499792
 H     5.947887    -9.223332    -1.129864
 O     6.001914    -9.368525    -2.079456
 H     5.104113    -9.583783    -2.361592
 H     6.650015     5.054436    -1.140540
 O     7.267701     4.369689    -1.417129
 H     7.469496     3.855660    -0.608040
 H    -5.288903    -2.610421     6.023612
 O    -5.271341    -1.831629     6.622709
 H    -4.629802    -2.079246     7.310851
 H     2.655363     1.564709     7.330711
 O     2.999247     0.650008     7.370889
 H     2.667194     0.247234     6.543590
 H    -2.594638    -2.629892     7.161481
 O    -3.060491    -2.731464     8.019641
 H    -2.414710    -2.398334     8.659485
 H     5.750018     1.692025     7.026511
 O     5.528474     0.989724     6.364027
 H     4.599570     0.791292     6.615511
 H     1.979298    -4.307253     4.148251
 O     2.485232    -4.233826     4.970406
 H     3.169070    -4.921570     4.885312
 H     10.290304    -2.998315    -2.042561
 O     10.810151    -2.995161    -1.193437
 H     11.733172    -2.989707    -1.440988
 H     3.926812     8.103693    -3.235238
 O     3.269290     8.701747    -2.858844
 H     3.113078     8.378189    -1.952755
 H    -8.302122    -6.307383     0.742127
 O    -8.956558    -5.887820     0.160338
 H    -8.876801    -4.932908     0.402995
 H    -0.667228     9.579774    -3.523185
 O    -1.595762     9.770129    -3.290126
 H    -1.632934     9.915159    -2.342212
 H     4.060348     3.810085    -4.007169
 O     3.523172     4.607469    -4.038299
 H     4.105204     5.376028    -3.862958
 H     5.208517     6.413310    -2.304404
 O     5.117155     6.599449    -3.259572
 H     5.879716     6.214802    -3.710543
 H    -0.142428     5.326871     5.933725
 O     0.557572     4.822267     5.496084
 H     1.249645     5.444655     5.166292
 H     3.428026     5.612407     4.883797
 O     2.656407     6.054730     4.499021
 H     2.569835     5.706401     3.597574
 H    -7.040465     9.097733    -0.239236
 O    -6.779598     8.844632    -1.134500
 H    -6.564853     7.896353    -1.087187
 H    -1.333019    -4.926797     3.722331
 O    -0.908887    -4.868539     2.835972
 H     0.007130    -5.148050     2.914108
 H     4.330371    -2.083968     6.155097
 O     4.299581    -2.262026     5.191433
 H     3.570066    -2.900098     5.054279
 H     7.047371    -6.235718     3.118311
 O     7.451993    -5.858411     3.909495
 H     7.000926    -5.004479     4.049519
 H     9.012770    -4.919733     3.771538
 O     9.655625    -4.206672     3.598132
 H     9.419075    -3.483783     4.192370
 H     2.951405     7.638845    -8.366949
 O     2.966913     7.122594    -7.562372
 H     2.110436     7.302542    -7.103729
 H    -0.423105    -1.104738     8.131494
 O    -0.621585    -1.714787     8.855850
 H     0.071612    -2.380206     8.824753
 H     8.352099     4.239231    -2.635861
 O     9.009175     4.231400    -3.379451
 H     9.753439     4.740097    -3.057539
 H     6.295303     4.403547    -5.491091
 O     6.648045     4.816234    -4.680781
 H     7.593794     4.641149    -4.615148
 H     10.537755     1.817461    -4.550352
 O     9.816473     1.738875    -3.927961
 H     9.458188     2.642087    -3.775983
 H     3.293841    -2.413881     7.865783
 O     4.122067    -1.887892     7.846365
 H     3.790655    -0.986249     8.002024
 H    -2.733005    -2.176354    -8.675235
 O    -3.113176    -1.815774    -7.875170
 H    -2.385906    -1.361486    -7.397252
 H     5.214299     5.315388     1.226245
 O     5.019368     4.782391     2.006886
 H     4.055019     4.830808     2.136155
 H    -4.033882    -6.379013    -4.563815
 O    -3.219593    -5.884540    -4.680997
 H    -3.449806    -5.118399    -5.230245
 H    -6.337522     6.408351     4.918849
 O    -5.894221     7.216098     4.600002
 H    -5.791017     7.104051     3.628873
 H    -7.234503     4.428756     6.216868
 O    -6.989675     4.831274     5.374192
 H    -6.774927     4.083778     4.792883
 H    -7.039099     9.681603     2.380344
 O    -6.813681     10.044556     1.499352
 H    -7.267665     10.885817     1.439168
 H    -6.070222    -6.797523     2.045338
 O    -6.683442    -6.166579     1.637184
 H    -6.158174    -5.754106     0.918329
 H    -3.669628    -4.439362     7.844272
 O    -3.931938    -5.290269     7.449403
 H    -3.160860    -5.590928     6.954587
 H     9.514119     0.606133    -0.869600
 O     9.576880     1.554920    -1.083198
 H     9.859526     1.590830    -2.002949
 H    -7.969944    -3.975206     3.586459
 O    -7.049503    -4.257002     3.570563
 H    -6.954798    -4.920018     2.856866
 H     1.184678    -2.152641     6.914229
 O     1.676364    -2.895320     7.281321
 H     1.859094    -3.489700     6.536680
 H    -3.717426    -3.020712    -6.661049
 O    -4.124607    -3.622713    -6.020820
 H    -5.072557    -3.474998    -6.079118
 H    -8.452939     8.630428     3.860209
 O    -7.649912     9.149428     3.925353
 H    -6.972534     8.551852     4.306613
 H     7.795977    -2.426598    -5.359677
 O     6.875246    -2.159866    -5.365407
 H     6.413690    -2.775838    -4.765585
 H    -4.841642    -4.674516     6.042410
 O    -4.899018    -4.111734     5.245627
 H    -5.682193    -4.360565     4.733855
 N     5.895584     2.855494     8.447071
 H     6.563524     3.570910     8.170052
 H     6.220792     2.439079     9.313755
 H     5.009890     3.311974     8.643249
