604
grain_mol108 // -1788.471679228645 // -55.2444187502 // -820.931346858845 // -1022.78475112 // -0.0555140737 // -0.583353707254 // -0.01564924792
 H    -1.685557    -0.012494     2.507725
 O    -0.706429    -0.017401     2.577909
 H    -0.458254    -0.917955     2.894375
 H    -0.424679    -1.803160    -2.854899
 O    -0.488364    -1.824795    -1.887606
 H    -1.430428    -1.701968    -1.682741
 H    -2.598397     1.928122     0.907915
 O    -2.529988     1.288843     0.178952
 H    -1.740171     1.549290    -0.328488
 H    -3.626091     2.090347    -2.951963
 O    -3.107651     2.422483    -3.722142
 H    -2.197270     2.523208    -3.425248
 H    -0.066159    -0.598461    -0.787546
 O     0.091651     0.123389    -0.148720
 H    -0.338949    -0.152409     0.671211
 H     0.906796    -1.901616    -4.796637
 O    -0.034901    -2.052344    -4.611841
 H    -0.161175    -3.012350    -4.650564
 H    -4.795015     2.593184    -1.193882
 O    -4.459704     1.757985    -1.574294
 H    -3.788377     1.452874    -0.918734
 H    -3.335352     3.490996     2.568550
 O    -2.636250     2.849482     2.337261
 H    -1.848545     3.163988     2.817721
 H     2.604779     0.213665    -2.948026
 O     1.983199    -0.401968    -2.508655
 H     1.089010    -0.060414    -2.702416
 H    -1.090974     0.403114    -3.567133
 O    -0.265850     0.853109    -3.290461
 H    -0.486342     1.455276    -2.560717
 H     2.728932    -0.656973     0.554997
 O     2.605057    -1.396557    -0.075088
 H     2.344958    -1.000799    -0.928746
 H    -2.799038    -0.348557    -0.549565
 O    -2.959029    -0.801437    -1.388217
 H    -3.781573    -1.318226    -1.306654
 H     2.926358     1.179258    -0.806216
 O     2.126326     1.719699    -0.680288
 H     1.390874     1.096344    -0.500549
 H     0.719217     3.200374    -3.208826
 O     1.632928     2.982487    -2.982260
 H     1.627975     2.518077    -2.125488
 H     0.050646    -3.972708    -0.556142
 O    -0.211306    -4.648577    -1.221494
 H    -1.006497    -5.075428    -0.827795
 H    -6.065164     2.357433     3.106226
 O    -6.105426     2.557639     4.078177
 H    -6.870613     2.055266     4.421508
 H     1.091996    -3.748566     1.288696
 O     0.696116    -3.085147     0.694426
 H     1.396094    -2.449827     0.440715
 H    -2.648336     5.347262    -0.923925
 O    -2.490752     4.541514    -0.396813
 H    -3.389313     4.205487    -0.196444
 H    -5.462675    -1.063660     1.750506
 O    -5.171391    -0.435759     1.055059
 H    -5.307290    -0.887427     0.216786
 H    -0.354309    -3.185583     3.045411
 O    -0.011603    -2.387639     3.482642
 H     0.933492    -2.321742     3.268745
 H     5.342224     0.865088    -1.193595
 O     4.540443     0.362121    -0.991371
 H     4.763094    -0.062267    -0.132481
 H     0.898443     2.381712     1.073948
 O     0.888953     2.039939     1.977268
 H     0.251485     1.304513     2.031403
 H     4.478356    -0.630034    -2.356496
 O     4.653689    -1.120440    -3.191705
 H     5.152486    -0.490705    -3.752930
 H     3.226867     3.171306    -0.993148
 O     4.119661     3.540724    -0.978651
 H     4.585170     3.234517    -1.780345
 H    -5.872295    -1.260424    -1.832970
 O    -5.361509    -1.978880    -1.401533
 H    -5.312247    -2.697164    -2.055124
 H    -4.976193    -3.870393     1.288376
 O    -5.644169    -3.215873     1.011734
 H    -5.408509    -2.937409     0.117066
 H     2.825859     2.084768    -3.662135
 O     3.472466     1.381237    -3.876814
 H     3.532687     1.345474    -4.837029
 H    -4.906896     4.036479     3.821844
 O    -4.318662     4.605455     3.313964
 H    -3.767500     5.115915     3.944872
 H     0.703323     1.021415    -4.712840
 O     1.181536     0.890976    -5.557552
 H     1.760714     0.115462    -5.406702
 H     1.291018     5.776322    -2.252608
 O     2.076021     5.419138    -1.803169
 H     2.606383     4.954552    -2.480421
 H    -2.858343    -3.352140    -1.763214
 O    -3.005392    -3.603377    -0.835814
 H    -3.791716    -4.166159    -0.800191
 H     2.298589     5.127108    -4.516650
 O     1.423270     5.249442    -4.923472
 H     1.379477     4.556177    -5.609151
 H     7.895158     1.580645    -0.957021
 O     7.090285     1.249739    -1.396221
 H     7.419317     0.555195    -2.002185
 H     4.678265     2.629503     0.328298
 O     5.007504     2.255607     1.170817
 H     4.968415     3.004180     1.801842
 H     1.001193    -3.187530    -2.191875
 O     1.860302    -3.063649    -2.621450
 H     1.982418    -2.091387    -2.648949
 H     1.419090     4.578988    -0.567078
 O     0.951739     4.121490     0.168086
 H     0.299281     4.753161     0.520364
 H    -5.619716     1.206843     1.318506
 O    -6.073735     2.050822     1.515110
 H    -7.017313     1.846279     1.288078
 H    -2.294038    -2.547554     0.282980
 O    -1.789779    -1.996376     0.911746
 H    -0.894501    -2.373182     0.899137
 H    -3.575414    -0.238355     4.319089
 O    -3.562853    -0.376162     5.293758
 H    -4.334649    -0.928855     5.554166
 H    -6.060680    -2.663766     3.276342
 O    -5.582668    -1.822219     3.365028
 H    -4.639533    -2.084437     3.352022
 H    -2.828797    -0.272280    -2.959571
 O    -2.578921    -0.341478    -3.908275
 H    -2.456246    -1.313331    -3.991706
 H    -3.525510    -3.240596    -3.693911
 O    -2.649746    -2.890931    -3.459041
 H    -1.984008    -3.550497    -3.736945
 H     3.208780    -1.240562    -4.293921
 O     2.644795    -1.337479    -5.084987
 H     3.264314    -1.522192    -5.809264
 H     4.766054     2.223241    -6.637979
 O     4.206433     1.419975    -6.651070
 H     3.373920     1.687197    -7.049369
 H    -4.017937     1.073059     5.842964
 O    -4.466775     1.914480     6.113794
 H    -5.031332     2.161354     5.353430
 H    -3.859105     0.033910     2.053960
 O    -3.300843     0.323974     2.795796
 H    -3.186048     1.292719     2.719443
 H    -5.723912     0.805266    -2.170055
 O    -6.293645     0.163952    -2.642860
 H    -5.877704     0.059332    -3.520113
 H     1.784480    -3.848445    -4.164925
 O     1.702939    -4.299727    -5.027980
 H     1.271971    -5.148348    -4.835773
 H     4.410652    -3.707788    -0.712544
 O     4.722369    -2.971026    -0.141966
 H     3.981914    -2.319672    -0.132256
 H    -0.071687     3.044205    -0.859054
 O    -0.837684     2.698546    -1.347359
 H    -1.527386     3.379767    -1.204556
 H     2.009468     4.325388     1.591839
 O     2.477693     4.436857     2.439349
 H     2.263666     3.651337     2.966768
 H     3.833541     1.039147     1.626150
 O     3.044744     0.486198     1.788814
 H     2.294225     1.095936     1.928864
 H     3.052985    -4.045278    -2.136133
 O     3.734206    -4.698438    -1.841367
 H     4.405414    -4.717373    -2.541354
 H     4.863249    -3.908656    -4.601862
 O     5.312122    -3.618631    -3.770279
 H     4.941430    -2.748520    -3.517865
 H    -0.799754     5.080808     2.183741
 O    -0.966151     5.647695     1.394599
 H    -1.624902     5.179140     0.819889
 H    -5.491624     3.379933     0.578239
 O    -5.028885     3.873579    -0.125913
 H    -5.451888     4.745445    -0.266828
 H     4.982519    -4.052419     2.842689
 O     4.230962    -3.841592     2.282379
 H     4.564348    -3.557666     1.401614
 H     5.878166    -1.503808     1.276489
 O     5.511375    -0.597710     1.278681
 H     6.315906    -0.045118     1.323206
 H     1.410518    -6.700589    -3.117540
 O     1.212025    -6.902602    -4.057399
 H     2.079500    -7.004371    -4.475850
 H    -7.246838    -3.408571     0.820988
 O    -8.220592    -3.365978     0.642597
 H    -8.628967    -3.111000     1.513731
 H     3.246759    -2.560670     2.751261
 O     2.587850    -1.869747     2.952653
 H     2.833313    -1.067799     2.456935
 H    -1.694514     2.706265     5.155674
 O    -2.386544     3.373825     5.317531
 H    -3.141185     2.892589     5.707147
 H    -0.666338     0.899460     4.020237
 O    -0.517272     1.439109     4.828917
 H     0.336022     1.864130     4.690709
 H     0.391773     3.509728    -6.884573
 O     1.339945     3.276517    -6.775606
 H     1.330790     2.421303    -6.305228
 H     7.164719    -3.140967     4.607461
 O     6.390026    -3.560498     4.162778
 H     5.601490    -3.183250     4.620672
 H     8.129581     1.197889     1.332150
 O     8.015684     0.270306     1.612963
 H     8.475597    -0.295298     0.965064
 H    -4.075111    -0.293793    -4.610649
 O    -5.007890    -0.299476    -4.937901
 H    -4.991167     0.085375    -5.835559
 H     6.440492    -1.606932    -2.250585
 O     6.842035    -2.089365    -1.522782
 H     6.108681    -2.343471    -0.930951
 H     4.791274    -1.027794     4.381915
 O     5.224692    -0.294340     3.914102
 H     5.155567    -0.447694     2.947874
 H     0.203447     3.287735     2.926711
 O    -0.397207     3.961335     3.304070
 H    -0.069593     4.200609     4.192572
 H     8.259392    -1.482277    -0.816370
 O     9.064737    -1.139782    -0.369257
 H     9.738952    -1.827026    -0.460132
 H     9.566487    -4.142262     2.002364
 O     9.267315    -3.935071     1.090412
 H     10.032113    -3.791419     0.522411
 H    -2.374858    -2.541015     3.859284
 O    -3.008110    -2.599719     3.134044
 H    -2.550513    -2.278267     2.316971
 H    -2.124813     0.926879    -6.234649
 O    -2.727366     1.696114    -6.260254
 H    -2.962963     1.879609    -5.326890
 H    -1.080575     3.950144    -5.445502
 O    -1.214329     3.929082    -6.421724
 H    -1.832572     3.190465    -6.565619
 H    -4.753911    -6.049869    -1.153253
 O    -5.195436    -5.289242    -0.746783
 H    -5.963518    -5.083639    -1.321174
 H     2.531361    -5.847312    -1.576846
 O     1.708644    -6.369415    -1.488281
 H     0.967988    -5.714818    -1.360845
 H     3.151181    -4.291596    -5.713771
 O     4.108207    -4.314871    -5.990913
 H     4.240919    -3.576026    -6.590942
 H     7.694761     3.198169     2.008902
 O     7.589796     2.852310     1.113505
 H     6.648052     2.554605     1.068907
 H     6.573241    -4.067572     0.229429
 O     7.030175    -4.892533    -0.005156
 H     7.926931    -4.765386     0.362615
 H    -7.642940    -4.147761    -2.419337
 O    -7.401436    -5.081268    -2.201937
 H    -7.992019    -5.350361    -1.465170
 H    -4.017517     6.895121     5.044353
 O    -3.145304     6.532191     4.799276
 H    -2.661623     6.300962     5.606931
 H     7.514897     3.270486     4.780249
 O     7.489904     2.877720     3.897861
 H     7.711998     1.935425     4.023284
 H    -5.615184     1.042455     7.018578
 O    -6.399634     0.525007     7.314074
 H    -6.158919    -0.404693     7.166127
 H    -0.595451    -4.794122    -2.937607
 O    -0.769493    -4.683619    -3.890182
 H    -1.390260    -5.371547    -4.162781
 H     6.838985    -0.009691     4.262663
 O     7.814555     0.148665     4.210155
 H     8.015848     0.107370     3.248589
 H     4.610641    -6.732075    -3.985564
 O     3.904309    -6.879753    -4.650907
 H     4.045172    -6.209998    -5.328327
 H    -5.953292    -1.606794    -5.194578
 O    -6.596963    -2.348174    -5.309043
 H    -7.439020    -1.894989    -5.573153
 H    -7.497988     0.869748     6.115525
 O    -8.054096     1.229685     5.379264
 H    -8.642165     1.871881     5.779958
 H    -4.929122     5.917074     2.403874
 O    -5.137067     6.839271     2.149370
 H    -4.264403     7.283997     2.126193
 H     5.860759     1.465871    -4.049883
 O     6.065768     0.679841    -4.601852
 H     5.567691     0.795809    -5.413469
 H    -5.564411     6.669170     0.500530
 O    -5.608645     6.453596    -0.454538
 H    -4.714896     6.662708    -0.799272
 H    -0.477780    -7.383905    -3.198023
 O    -1.175308    -7.490778    -2.540917
 H    -0.781271    -7.856406    -1.740118
 H    -2.447945    -1.544172     5.541024
 O    -1.818390    -2.293419     5.669476
 H    -0.967614    -1.856405     5.862032
 H     7.420997    -4.711924    -1.666665
 O     7.528248    -4.697301    -2.641976
 H     6.768397    -4.188989    -2.974672
 H    -8.892346    -2.553692    -3.352425
 O    -7.994179    -2.540284    -2.940235
 H    -7.400525    -2.348659    -3.689015
 H     8.750411    -3.553122    -3.030167
 O     9.404492    -2.849323    -3.225826
 H     8.933568    -2.003501    -3.117630
 H    -5.216788    -4.734853    -3.564606
 O    -5.146678    -3.774618    -3.429912
 H    -5.657368    -3.358945    -4.134901
 H    -3.481087     4.186149    -3.447879
 O    -3.156794     5.026565    -3.085410
 H    -3.427636     5.738984    -3.665755
 H    -0.057909     4.807042    -3.999328
 O    -0.735320     4.136145    -3.801194
 H    -1.499126     4.604059    -3.407243
 H    -1.952830    -4.045229     5.351560
 O    -2.278355    -4.892856     5.010157
 H    -3.208809    -4.715068     4.786167
 H    -2.089035     8.514600    -3.649271
 O    -2.326354     7.571204    -3.760088
 H    -2.146611     7.335869    -4.696955
 H    -2.626771     7.399765     3.335057
 O    -2.557331     7.600812     2.386636
 H    -1.987559     6.893078     2.022356
 H     4.977196     1.373968     4.149752
 O     4.852431     2.334812     3.990969
 H     5.735507     2.668056     3.743300
 H     7.956202    -2.065538     6.147073
 O     8.380993    -2.272412     5.291694
 H     8.361382    -1.419796     4.813713
 H     6.127030    -1.765185     7.684874
 O     6.844423    -1.263508     7.285161
 H     6.406619    -0.492676     6.859687
 H    -1.546889     5.776859    -6.394903
 O    -1.647654     6.719968    -6.193855
 H    -0.764213     7.116382    -6.297771
 H    -8.078669     0.071448     4.051287
 O    -7.920251    -0.464402     3.261856
 H    -7.027761    -0.843248     3.349885
 H    -8.433486     0.442640     0.301451
 O    -8.436894     1.074653     1.044202
 H    -8.415405     0.520228     1.843086
 H     0.953642    -0.604936     5.898392
 O     0.124737    -0.654481     6.429445
 H    -0.355775     0.137289     6.131176
 H    -0.175082     7.052567    -1.598546
 O    -0.155845     6.672483    -2.499805
 H    -1.008648     6.903348    -2.932387
 H     0.388701    -8.030730     0.526525
 O    -0.527911    -8.245641     0.295678
 H    -0.971607    -8.298551     1.170083
 H     2.234213     2.572962     5.241385
 O     2.223576     2.298244     4.300003
 H     3.161742     2.291210     4.036336
 H    -8.154359    -5.168543    -5.448707
 O    -7.260474    -5.056349    -5.809025
 H    -7.069581    -4.110918    -5.751818
 H     2.867734    -7.672325     0.980592
 O     1.993670    -7.275676     0.948482
 H     1.911465    -6.931898     0.021868
 H     3.500372     5.638439    -7.411861
 O     3.618865     4.673099    -7.540944
 H     2.777379     4.250421    -7.309256
 H    -0.203929     7.003180     0.571115
 O     0.119048     7.701831    -0.022630
 H    -0.531751     8.415386     0.041534
 H     4.687222     3.474910     5.199790
 O     4.632097     4.120637     5.945088
 H     5.519556     4.149969     6.312317
 H     7.882220     2.504231     6.740312
 O     7.382462     3.360997     6.675854
 H     7.897550     4.001254     7.165463
 H     3.835117    -8.118622    -1.122112
 O     4.379373    -7.606435    -0.501745
 H     4.837091    -6.972212    -1.077053
 H     6.547157    -6.142092    -2.794678
 O     5.759389    -6.714631    -2.740405
 H     6.066423    -7.637270    -2.681659
 H    -9.014826    -1.808703     3.113132
 O    -9.524897    -2.602921     2.842111
 H    -10.193133    -2.230754     2.213218
 H    -2.296850     8.838770     1.098399
 O    -2.153671     9.196127     0.206179
 H    -2.932512     9.785362     0.048715
 H     8.265990     0.336979     7.268222
 O     8.624921     1.025425     6.697846
 H     8.454672     0.709984     5.793425
 H    -2.036689     5.154241     7.730826
 O    -1.758043     5.368086     6.841531
 H    -1.984520     4.572571     6.272743
 H    -6.484787    -6.152627    -3.280561
 O    -5.832600    -6.365269    -3.972684
 H    -6.273010    -6.060099    -4.794419
 H     6.783087    -3.028415     2.591332
 O     6.904080    -2.767226     1.659281
 H     7.845652    -2.875232     1.460666
 H     2.613263     6.639482    -0.814957
 O     2.900603     7.366741    -0.218427
 H     2.072622     7.730645     0.118650
 H    -4.410870    -7.166242    -2.867059
 O    -3.842050    -7.234849    -2.091840
 H    -2.940274    -7.384821    -2.428339
 H     1.109904     6.720882    -5.596623
 O     0.962701     7.600853    -6.015227
 H     1.010457     8.228073    -5.264308
 H    -8.242410    -1.298361    -1.581394
 O    -8.485449    -0.996503    -0.684980
 H    -8.331722    -1.818157    -0.163242
 H    -2.983444     7.253889    -2.101443
 O    -3.075964     7.071929    -1.156579
 H    -2.740843     7.861018    -0.681268
 H     2.750929    -4.661568     2.269645
 O     1.824462    -4.972484     2.284899
 H     1.845424    -5.861870     1.875361
 H    -8.843991    -0.398190    -4.906376
 O    -8.790813    -0.978727    -5.702463
 H    -8.492402    -0.388493    -6.416903
 H     7.550867    -0.272875    -3.993039
 O     8.202667    -0.336617    -3.275861
 H     8.896443     0.306645    -3.479041
 H     4.510913     6.537319    -0.089966
 O     5.194797     5.879293    -0.294014
 H     4.704076     5.059718    -0.525838
 H    -7.922695     0.467776    -3.102004
 O    -8.824698     0.508967    -3.481359
 H    -9.421231     0.292109    -2.762315
 H     6.274876     3.616261    -3.326920
 O     5.776719     2.845490    -2.997486
 H     6.356758     2.397237    -2.337171
 H    -1.511596    -6.857918     0.087533
 O    -2.101505    -6.094092    -0.076243
 H    -2.715112    -6.374406    -0.762103
 H    -4.154809    -7.646604     1.012282
 O    -4.362461    -7.388373     1.913291
 H    -4.113862    -6.435325     1.980261
 H    -2.964008    -4.982928     1.189560
 O    -3.663888    -4.844304     1.848004
 H    -3.349100    -4.140427     2.450827
 H     5.157623    -6.401514     4.724409
 O     4.406157    -6.128616     4.194676
 H     4.688160    -6.225205     3.269637
 H    -10.030444    -5.752660    -3.803440
 O    -9.833747    -5.409003    -4.708098
 H    -10.456101    -5.860572    -5.288449
 H     6.153200    -5.881412     1.107798
 O     5.626795    -6.456726     1.700390
 H     5.144007    -7.028050     1.091374
 H    -1.511392    -6.701553     2.562156
 O    -1.686043    -7.656577     2.612169
 H    -2.650291    -7.745713     2.617454
 H    -10.284444    -3.598957    -4.548376
 O    -10.395923    -2.688436    -4.201655
 H    -10.167477    -2.095225    -4.936866
 H     0.765453     7.960573    -3.210948
 O     1.110315     8.785430    -3.612458
 H     2.019693     8.892545    -3.263818
 H    -11.208394    -6.948637    -1.982383
 O    -10.601330    -6.224781    -2.163505
 H    -10.033187    -6.139976    -1.356265
 H     2.218483     0.561251     4.563322
 O     2.290056    -0.295121     5.026385
 H     2.469301    -0.978765     4.346679
 H    -6.560857     0.666465    -7.500513
 O    -7.514516     0.783775    -7.358345
 H    -7.634344     1.690424    -7.072876
 H     6.348354     3.712555    -7.329296
 O     5.765359     3.666035    -6.571549
 H     4.932608     4.156156    -6.852966
 H    -4.904372     10.472382     0.769914
 O    -4.422288     10.479504    -0.067833
 H    -5.031811     10.020185    -0.678715
 H    -0.844853    -1.054060    -5.739821
 O    -0.993261    -0.389818    -6.447568
 H    -0.188101     0.160968    -6.401252
 H     4.710520    -0.569234    -6.989227
 O     4.763580    -1.506108    -6.771679
 H     5.611282    -1.637814    -6.311431
 H     2.247141    -8.907847    -2.685151
 O     3.205911    -8.870843    -2.691651
 H     3.445734    -8.289446    -3.428381
 H    -4.274566    -0.244918    -7.818788
 O    -4.753701     0.524437    -7.474985
 H    -4.048763     1.139867    -7.169077
 H     1.610393     3.661979     6.686359
 O     2.337638     3.040392     6.884943
 H     3.167297     3.535996     6.755989
 H    -11.364228    -2.238806     0.088399
 O    -11.012477    -1.576863     0.733837
 H    -10.296323    -1.149378     0.231028
 H    -7.191783     2.236828     7.707937
 O    -7.634507     3.094538     7.634278
 H    -7.731839     3.430515     8.524707
 H     5.920968    -9.252606    -1.251862
 O     5.988714    -9.369844    -2.204432
 H     5.092749    -9.563330    -2.507432
 H     6.840070     5.007666    -0.829205
 O     7.452285     4.322283    -1.116409
 H     7.633169     3.780558    -0.321233
 H    -5.333114    -2.674745     5.907790
 O    -5.312438    -1.914166     6.529763
 H    -4.687312    -2.192701     7.221144
 H     2.808458     1.368670     7.465406
 O     3.245719     0.510472     7.370644
 H     2.902005     0.138674     6.531135
 H    -2.658545    -2.770266     7.089124
 O    -3.140491    -2.889855     7.935826
 H    -2.500977    -2.585729     8.596069
 H     5.984254     1.816682     6.625203
 O     5.663486     0.954460     6.354731
 H     4.778009     0.833347     6.757470
 H     1.939311    -4.429485     4.104216
 O     2.433958    -4.386367     4.935287
 H     3.107227    -5.083249     4.842416
 H     10.372990    -3.071634    -1.908447
 O     10.878009    -3.100587    -1.050859
 H     11.805137    -3.105459    -1.282608
 H     4.200580     8.158662    -2.878389
 O     3.546077     8.755635    -2.495232
 H     3.369600     8.408387    -1.601766
 H    -8.387949    -6.293858     0.465804
 O    -8.977144    -5.749474    -0.082362
 H    -8.778748    -4.818964     0.251356
 H    -0.365182     9.714780    -3.198350
 O    -1.294614     9.912413    -2.975402
 H    -1.346032     10.030511    -2.024411
 H     4.281518     3.887475    -3.774961
 O     3.757269     4.693826    -3.790287
 H     4.347909     5.447697    -3.583405
 H     5.441592     6.421784    -1.975842
 O     5.368562     6.636671    -2.926225
 H     6.132466     6.253775    -3.376441
 H    -0.072703     5.185425     6.134771
 O     0.625311     4.684488     5.689426
 H     1.335340     5.304037     5.394693
 H     3.512846     5.443848     5.156154
 O     2.761350     5.913100     4.764249
 H     2.686922     5.587106     3.853356
 H    -6.799612     9.237358    -0.035717
 O    -6.527134     9.006339    -0.933509
 H    -6.328140     8.053714    -0.910380
 H    -1.375397    -4.984135     3.605031
 O    -0.934049    -4.907176     2.728287
 H    -0.024282    -5.203892     2.814491
 H     4.292726    -2.299677     6.210637
 O     4.276354    -2.450654     5.241146
 H     3.538264    -3.072069     5.075099
 H     6.993730    -6.409337     3.099139
 O     7.392207    -6.060579     3.906398
 H     6.949422    -5.205842     4.065678
 H     8.968162    -5.144694     3.821822
 O     9.624345    -4.436643     3.680093
 H     9.389704    -3.728915     4.292882
 H     3.305106     7.859117    -8.036787
 O     3.298921     7.319263    -7.247714
 H     2.437537     7.499319    -6.798293
 H    -0.480913    -1.307526     8.140179
 O    -0.702048    -1.937492     8.840364
 H    -0.015606    -2.609555     8.804290
 H     8.555407     4.209603    -2.321609
 O     9.224907     4.212460    -3.053628
 H     9.971111     4.700467    -2.705254
 H     6.549238     4.489659    -5.203266
 O     6.894851     4.871689    -4.374934
 H     7.836820     4.680723    -4.300397
 H     10.735801     1.808988    -4.269011
 O     10.003711     1.724463    -3.660118
 H     9.656340     2.628491    -3.489255
 H     3.218469    -2.545073     7.874559
 O     4.068406    -2.063196     7.868613
 H     3.824385    -1.128747     7.951959
 H    -2.522668    -1.851789    -8.727638
 O    -2.910787    -1.509515    -7.923354
 H    -2.184939    -1.080532    -7.420455
 H     5.369536     5.219761     1.522279
 O     5.153556     4.668667     2.285082
 H     4.186989     4.728064     2.396562
 H    -3.955891    -6.152773    -4.763735
 O    -3.132671    -5.667480    -4.853059
 H    -3.341878    -4.881969    -5.382931
 H    -6.224687     6.387632     5.052841
 O    -5.763997     7.197263     4.764617
 H    -5.646929     7.111714     3.792485
 H    -7.173335     4.385839     6.276815
 O    -6.907612     4.808670     5.450531
 H    -6.695749     4.074813     4.851031
 H    -6.833572     9.744234     2.599444
 O    -6.587609     10.129417     1.733461
 H    -7.027886     10.978993     1.690827
 H    -6.115154    -6.728491     1.793862
 O    -6.712295    -6.080100     1.389711
 H    -6.164551    -5.650861     0.698428
 H    -3.772538    -4.581465     7.700656
 O    -4.040346    -5.416691     7.277055
 H    -3.265680    -5.714328     6.786175
 H     9.632251     0.507994    -0.643620
 O     9.711948     1.461918    -0.826784
 H     10.011430     1.521466    -1.740032
 H    -7.992528    -3.918090     3.385901
 O    -7.077237    -4.221784     3.381531
 H    -6.982544    -4.860378     2.647362
 H     1.131305    -2.342850     6.919078
 O     1.610588    -3.100337     7.272077
 H     1.793479    -3.677844     6.514442
 H    -3.552399    -2.739853    -6.755600
 O    -3.980843    -3.353753    -6.140996
 H    -4.924811    -3.187483    -6.211100
 H    -8.288030     8.672900     4.025087
 O    -7.478227     9.176991     4.117694
 H    -6.816713     8.558196     4.492918
 H     7.943501    -2.365112    -5.249361
 O     7.027653    -2.082284    -5.260491
 H     6.546284    -2.709010    -4.687947
 H    -4.918627    -4.745601     5.872752
 O    -4.952048    -4.159557     5.091808
 H    -5.731933    -4.378261     4.560909
 N    -11.972418    -3.263270    -1.378962
 H    -11.686771    -2.810278    -2.245221
 H    -12.987795    -3.246702    -1.358612
 H    -11.691263    -4.237974    -1.466591
