604
grain_mol126 // -1574.401225130299 // -39.983508497 // -591.601422307299 // -1022.78331132 // -0.0395557359 // -0.583103942904 // -0.010875182234
 H    -1.758778    -0.358949     2.519253
 O    -0.780744    -0.335853     2.597650
 H    -0.501862    -1.252982     2.830020
 H    -0.400869    -1.585432    -2.977226
 O    -0.470087    -1.700252    -2.016908
 H    -1.417206    -1.631764    -1.810600
 H    -2.730532     1.692823     1.101974
 O    -2.635533     1.129044     0.315822
 H    -1.851523     1.462936    -0.156296
 H    -3.739771     2.184855    -2.736212
 O    -3.228345     2.606682    -3.466474
 H    -2.324343     2.709808    -3.151302
 H    -0.098865    -0.570782    -0.800979
 O     0.027055     0.092977    -0.095589
 H    -0.396082    -0.275720     0.691040
 H     0.944899    -1.451651    -4.906262
 O     0.007737    -1.651463    -4.746614
 H    -0.083539    -2.607491    -4.876506
 H    -4.936291     2.477149    -0.948705
 O    -4.568600     1.694667    -1.404118
 H    -3.890877     1.352130    -0.773919
 H    -3.533600     3.063129     2.896775
 O    -2.810914     2.471103     2.611992
 H    -2.037674     2.766043     3.127372
 H     2.554579     0.536807    -2.849075
 O     1.952588    -0.139375    -2.476110
 H     1.048103     0.187572    -2.644402
 H    -1.142117     0.653528    -3.481807
 O    -0.336066     1.105638    -3.156708
 H    -0.581684     1.626226    -2.374146
 H     2.688435    -0.658207     0.556715
 O     2.594087    -1.338398    -0.141762
 H     2.326443    -0.872387    -0.956690
 H    -2.840224    -0.441499    -0.566559
 O    -2.980058    -0.816476    -1.446287
 H    -3.782634    -1.368877    -1.421702
 H     2.828023     1.305574    -0.622013
 O     2.007679     1.802342    -0.453593
 H     1.294591     1.138840    -0.340557
 H     0.564114     3.465690    -2.844610
 O     1.483094     3.259834    -2.629937
 H     1.490287     2.717060    -1.820542
 H     0.137789    -3.945575    -0.889395
 O    -0.096045    -4.563211    -1.618741
 H    -0.877257    -5.054080    -1.275069
 H    -6.223987     1.788105     3.298449
 O    -6.278361     1.892379     4.284393
 H    -7.027139     1.332998     4.570644
 H     1.158878    -3.861336     0.977716
 O     0.742704    -3.158505     0.445771
 H     1.421222    -2.477896     0.259995
 H    -2.891651     5.267473    -0.396195
 O    -2.709197     4.419939     0.051673
 H    -3.596391     4.035444     0.210709
 H    -5.489778    -1.465783     1.628661
 O    -5.220240    -0.763913     0.998353
 H    -5.330791    -1.139081     0.119588
 H    -0.317159    -3.519590     2.766021
 O    -0.006776    -2.754898     3.280037
 H     0.936863    -2.635688     3.083067
 H     5.255458     1.114566    -1.014625
 O     4.471091     0.566577    -0.868565
 H     4.704008     0.070647    -0.051733
 H     0.746791     2.251187     1.343885
 O     0.743191     1.824826     2.210565
 H     0.132600     1.065475     2.188245
 H     4.453677    -0.292462    -2.322439
 O     4.650888    -0.694575    -3.198925
 H     5.130782     0.002758    -3.692973
 H     3.057720     3.316089    -0.617153
 O     3.937060     3.712073    -0.558011
 H     4.417961     3.501635    -1.381264
 H    -5.872929    -1.334543    -1.960391
 O    -5.340899    -2.073569    -1.593671
 H    -5.258150    -2.723200    -2.313104
 H    -4.898027    -4.198725     0.907631
 O    -5.586779    -3.543013     0.689882
 H    -5.358789    -3.173295    -0.173575
 H     2.713350     2.474878    -3.380783
 O     3.383036     1.815362    -3.655399
 H     3.455817     1.878062    -4.613434
 H    -5.131055     3.431254     4.181971
 O    -4.561127     4.065890     3.734855
 H    -4.032458     4.534131     4.416023
 H     0.637330     1.432962    -4.543167
 O     1.120459     1.392342    -5.394004
 H     1.733950     0.632860    -5.310579
 H     1.037508     5.959415    -1.641136
 O     1.831001     5.586862    -1.220261
 H     2.383285     5.210915    -1.934461
 H    -2.784161    -3.316110    -2.060898
 O    -2.929797    -3.657423    -1.162429
 H    -3.693632    -4.250872    -1.189040
 H     2.084965     5.501350    -3.978174
 O     1.221265     5.656298    -4.410662
 H     1.249516     5.021865    -5.156008
 H     7.779741     1.893602    -0.686254
 O     6.989932     1.577531    -1.162276
 H     7.347765     0.956483    -1.828698
 H     4.519482     2.701271     0.661598
 O     4.855908     2.260527     1.468251
 H     4.786659     2.944235     2.166729
 H     1.069702    -2.975448    -2.434245
 O     1.926133    -2.780721    -2.842208
 H     2.013759    -1.806668    -2.775770
 H     1.197763     4.610981    -0.076476
 O     0.741647     4.069033     0.606820
 H     0.066063     4.641884     1.011930
 H    -5.726543     0.829365     1.413051
 O    -6.211428     1.634306     1.685081
 H    -7.145060     1.421605     1.429508
 H    -2.261651    -2.690439     0.058057
 O    -1.782002    -2.184024     0.741302
 H    -0.873431    -2.525819     0.701873
 H    -3.650447    -0.821837     4.282777
 O    -3.639315    -1.051402     5.239948
 H    -4.392041    -1.653361     5.439484
 H    -6.039079    -3.223697     2.991056
 O    -5.594457    -2.376970     3.162505
 H    -4.641776    -2.601971     3.135069
 H    -2.857980    -0.136743    -2.959186
 O    -2.599608    -0.106571    -3.907637
 H    -2.442287    -1.061602    -4.081227
 H    -3.443515    -3.044145    -3.978370
 O    -2.582366    -2.687671    -3.702620
 H    -1.891586    -3.294184    -4.035436
 H     3.219888    -0.760527    -4.320362
 O     2.664658    -0.802945    -5.122559
 H     3.295322    -0.894195    -5.855174
 H     4.661753     2.970786    -6.309937
 O     4.136831     2.149475    -6.401511
 H     3.298515     2.418623    -6.786234
 H    -4.149190     0.321771     5.920284
 O    -4.630422     1.116678     6.265670
 H    -5.197867     1.415446     5.526490
 H    -3.929651    -0.344515     2.050218
 O    -3.388000    -0.107598     2.822353
 H    -3.306046     0.867476     2.839399
 H    -5.794096     0.758147    -2.098261
 O    -6.338685     0.144713    -2.633666
 H    -5.914645     0.137887    -3.513320
 H     1.888613    -3.417431    -4.453877
 O     1.827674    -3.786465    -5.356746
 H     1.427565    -4.664776    -5.250022
 H     4.486387    -3.513587    -0.978424
 O     4.767599    -2.823923    -0.337485
 H     4.004308    -2.202920    -0.273183
 H    -0.235137     3.059936    -0.527464
 O    -0.985155     2.737316    -1.055188
 H    -1.699922     3.376112    -0.851810
 H     1.783622     4.174185     2.054476
 O     2.241431     4.221035     2.913517
 H     2.053242     3.381601     3.361738
 H     3.724442     0.966017     1.794388
 O     2.954837     0.372695     1.896109
 H     2.182370     0.939689     2.086675
 H     3.150708    -3.761549    -2.440771
 O     3.852856    -4.415473    -2.202629
 H     4.528929    -4.343940    -2.894568
 H     4.970165    -3.327268    -4.864616
 O     5.402475    -3.102300    -4.004653
 H     4.999786    -2.273252    -3.674959
 H    -1.054648     4.770266     2.689220
 O    -1.236920     5.403599     1.956113
 H    -1.874180     4.968970     1.333043
 H    -5.671574     3.067820     0.884139
 O    -5.224007     3.640672     0.232455
 H    -5.675564     4.507859     0.172503
 H     5.047868    -4.174777     2.533346
 O     4.292659    -3.937839     1.988542
 H     4.621293    -3.559992     1.141919
 H     5.861331    -1.458529     1.224732
 O     5.462006    -0.570277     1.309320
 H     6.245931     0.003564     1.413766
 H     1.610822    -6.367467    -3.685738
 O     1.425491    -6.485148    -4.642446
 H     2.298716    -6.516874    -5.060176
 H    -7.186641    -3.726708     0.482484
 O    -8.155253    -3.701092     0.286743
 H    -8.611403    -3.599335     1.150457
 H     3.260311    -2.742933     2.567389
 O     2.575471    -2.097992     2.826711
 H     2.795490    -1.244308     2.412023
 H    -1.881869     2.094105     5.412792
 O    -2.598970     2.717977     5.630322
 H    -3.337458     2.175501     5.966324
 H    -0.782178     0.440875     4.121124
 O    -0.658112     0.906014     4.978710
 H     0.180359     1.371893     4.890044
 H     0.181280     3.984837    -6.495021
 O     1.148063     3.790115    -6.541460
 H     1.202865     2.920080    -6.092820
 H     7.185215    -3.359080     4.397359
 O     6.428735    -3.761334     3.907512
 H     5.624476    -3.457353     4.391631
 H     8.013639     1.303034     1.558288
 O     7.931111     0.349479     1.748561
 H     8.415386    -0.135241     1.054476
 H    -4.092273    -0.044196    -4.615942
 O    -5.022492    -0.048783    -4.950035
 H    -5.014519     0.417082    -5.807978
 H     6.448932    -1.205136    -2.290896
 O     6.862782    -1.740735    -1.608627
 H     6.135537    -2.075450    -1.050436
 H     4.738801    -1.319066     4.350514
 O     5.147992    -0.529370     3.958688
 H     5.091013    -0.592430     2.981606
 H     0.007649     2.951556     3.267575
 O    -0.619914     3.563686     3.701609
 H    -0.306055     3.729540     4.611646
 H     8.253161    -1.154014    -0.833834
 O     9.042641    -0.827750    -0.348106
 H     9.742024    -1.478575    -0.498028
 H     9.637547    -4.022459     1.732110
 O     9.336708    -3.740037     0.841152
 H     10.099371    -3.515959     0.296786
 H    -2.365722    -3.026670     3.617894
 O    -2.992406    -3.037320     2.884566
 H    -2.540666    -2.624639     2.105991
 H    -2.175530     1.393067    -6.098576
 O    -2.801849     2.143258    -6.055689
 H    -3.054236     2.223264    -5.111489
 H    -1.271308     4.368372    -5.026381
 O    -1.427384     4.462003    -5.998917
 H    -2.016770     3.701792    -6.187316
 H    -4.586832    -6.123123    -1.726979
 O    -5.057733    -5.421530    -1.252775
 H    -5.829777    -5.188710    -1.812132
 H     2.690794    -5.625929    -2.060166
 O     1.886648    -6.182538    -2.029445
 H     1.122366    -5.569571    -1.847713
 H     3.279723    -3.662175    -6.024847
 O     4.238675    -3.625358    -6.293295
 H     4.348956    -2.828664    -6.819255
 H     7.502906     3.213279     2.417823
 O     7.415984     2.950570     1.492740
 H     6.485965     2.625551     1.410898
 H     6.654785    -3.884714    -0.054089
 O     7.142306    -4.667127    -0.361509
 H     8.031736    -4.544096     0.025042
 H    -7.489134    -4.184827    -2.826041
 O    -7.257383    -5.132045    -2.703587
 H    -7.874455    -5.476839    -2.029932
 H    -4.353503     6.189883     5.677762
 O    -3.467791     5.881821     5.407386
 H    -2.980608     5.592830     6.194079
 H     7.303381     3.015017     5.181621
 O     7.297397     2.707303     4.265775
 H     7.553075     1.765934     4.303138
 H    -5.752574     0.123390     7.071191
 O    -6.520170    -0.447327     7.307380
 H    -6.244078    -1.349770     7.076127
 H    -0.463606    -4.558878    -3.345050
 O    -0.636551    -4.363261    -4.283999
 H    -1.229730    -5.044018    -4.627129
 H     6.749200    -0.222671     4.348247
 O     7.718706    -0.025915     4.320338
 H     7.927344     0.031796     3.361152
 H     4.815425    -6.203572    -4.521593
 O     4.118741    -6.311779    -5.204514
 H     4.240050    -5.576365    -5.814224
 H    -5.920992    -1.363637    -5.336639
 O    -6.535603    -2.113072    -5.525061
 H    -7.391239    -1.667468    -5.756646
 H    -7.621525    -0.029614     6.137371
 O    -8.187220     0.377011     5.432987
 H    -8.798367     0.959170     5.887498
 H    -5.212790     5.436104     2.947560
 O    -5.452413     6.370223     2.779339
 H    -4.596161     6.845788     2.807133
 H     5.770807     2.002349    -3.795229
 O     6.005811     1.279696    -4.417498
 H     5.510330     1.457047    -5.219636
 H    -5.862949     6.343124     1.118158
 O    -5.892932     6.217065     0.146608
 H    -5.005281     6.490945    -0.167713
 H    -0.251465    -7.106311    -3.848904
 O    -0.948485    -7.298611    -3.210974
 H    -0.546495    -7.725895    -2.445450
 H    -2.483968    -2.197591     5.386172
 O    -1.829110    -2.933262     5.448505
 H    -0.995646    -2.487081     5.690149
 H     7.536822    -4.315429    -1.994679
 O     7.649338    -4.204444    -2.963139
 H     6.873903    -3.693689    -3.253304
 H    -8.823492    -2.619195    -3.479812
 O    -7.900518    -2.570546    -3.140158
 H    -7.360144    -2.300829    -3.898247
 H     8.831933    -2.985570    -3.229570
 O     9.461357    -2.243739    -3.351287
 H     8.959784    -1.429057    -3.168010
 H    -5.083135    -4.600675    -4.006269
 O    -5.047357    -3.655670    -3.779743
 H    -5.572556    -3.193310    -4.444455
 H    -3.667370     4.322938    -3.027263
 O    -3.370296     5.134873    -2.585819
 H    -3.670494     5.891923    -3.090272
 H    -0.255604     5.112158    -3.494515
 O    -0.917321     4.406639    -3.378170
 H    -1.693563     4.804784    -2.934129
 H    -1.897925    -4.650543     4.965007
 O    -2.190975    -5.472642     4.541560
 H    -3.125640    -5.307101     4.326503
 H    -2.431250     8.696552    -2.796012
 O    -2.636495     7.761338    -3.003324
 H    -2.437938     7.631374    -3.958323
 H    -2.971107     6.903587     4.037544
 O    -2.904115     7.195624     3.112955
 H    -2.306051     6.547083     2.688731
 H     4.839403     1.099079     4.349446
 O     4.680919     2.065632     4.281418
 H     5.553009     2.451889     4.075047
 H     7.927909    -2.407991     6.039679
 O     8.364914    -2.517473     5.172543
 H     8.317854    -1.624404     4.777529
 H     6.079502    -2.319972     7.581540
 O     6.780805    -1.757629     7.238007
 H     6.318304    -0.965635     6.883477
 H    -1.823242     6.364237    -5.761489
 O    -1.908715     7.307030    -5.539496
 H    -0.982285     7.646052    -5.457559
 H    -8.160236    -0.648775     4.001499
 O    -7.978987    -1.101369     3.165707
 H    -7.073430    -1.454976     3.225994
 H    -8.506354     0.060742     0.303553
 O    -8.533682     0.623007     1.095457
 H    -8.501051    -0.000292     1.841180
 H     0.878781    -1.177752     5.863494
 O     0.048593    -1.306898     6.379089
 H    -0.457730    -0.507335     6.153137
 H    -0.477471     7.113787    -0.885109
 O    -0.442758     6.816297    -1.816344
 H    -1.298338     7.064758    -2.233047
 H     0.614956    -8.073654    -0.194518
 O    -0.292196    -8.297024    -0.453165
 H    -0.738507    -8.449704     0.407957
 H     2.048446     2.091488     5.523433
 O     2.053415     1.907068     4.560200
 H     2.992901     1.958539     4.306076
 H    -7.987486    -4.962025    -5.957311
 O    -7.093408    -4.782413    -6.291833
 H    -6.941829    -3.840150    -6.141735
 H     3.076468    -7.672920     0.315737
 O     2.188901    -7.306010     0.312977
 H     2.100363    -6.878835    -0.577636
 H     3.083356     6.311935    -7.176831
 O     3.426469     5.382299    -7.066844
 H     2.619632     4.858287    -6.926950
 H    -0.518419     6.857789     1.271627
 O    -0.216946     7.620126     0.749455
 H    -0.892762     8.301626     0.874324
 H     4.467627     3.078920     5.591357
 O     4.384371     3.648218     6.394123
 H     5.267903     3.674032     6.770989
 H     7.685753     2.079147     7.063490
 O     7.155743     2.919905     7.075912
 H     7.644752     3.528651     7.628440
 H     4.072596    -7.882811    -1.810485
 O     4.593721    -7.412820    -1.138960
 H     5.032425    -6.711372    -1.647154
 H     6.721899    -5.661662    -3.261697
 O     5.954885    -6.264174    -3.269434
 H     6.294653    -7.176801    -3.295784
 H    -8.967659    -2.468356     2.868915
 O    -9.452103    -3.259921     2.552733
 H    -10.193018    -2.901910     2.034757
 H    -2.679472     8.559781     1.950998
 O    -2.544246     9.004056     1.097512
 H    -3.341792     9.579060     0.989320
 H     8.144177    -0.113836     7.386757
 O     8.481291     0.638147     6.887784
 H     8.328449     0.404392     5.955887
 H    -2.327804     4.271960     8.205637
 O    -2.052258     4.579273     7.343173
 H    -2.245986     3.834060     6.699406
 H    -6.299043    -6.082995    -3.872219
 O    -5.634208    -6.206435    -4.574098
 H    -6.080727    -5.840137    -5.367797
 H     6.812345    -3.068584     2.397490
 O     6.929450    -2.715725     1.495640
 H     7.875558    -2.770816     1.296683
 H     2.318292     6.726660    -0.115239
 O     2.575699     7.402058     0.551731
 H     1.733011     7.704743     0.912098
 H    -4.192822    -7.058900    -3.535534
 O    -3.626141    -7.180510    -2.765112
 H    -2.717881    -7.266706    -3.106528
 H     0.977772     7.284587    -4.896670
 O     0.677732     8.171183    -5.215319
 H     0.710398     8.724527    -4.405445
 H    -8.280107    -1.505140    -1.723450
 O    -8.567201    -1.327251    -0.814359
 H    -8.333845    -2.165537    -0.355285
 H    -3.287216     7.264276    -1.390856
 O    -3.381364     6.988855    -0.468912
 H    -3.077088     7.739926     0.083009
 H     2.843345    -4.804571     1.883607
 O     1.928502    -5.147914     1.859944
 H     1.984427    -5.993107     1.368220
 H    -8.851394    -0.290152    -4.974243
 O    -8.766090    -0.784090    -5.823084
 H    -8.486485    -0.115414    -6.472759
 H     7.521240     0.327785    -3.887959
 O     8.170325     0.218495    -3.173836
 H     8.842058     0.902084    -3.308040
 H     4.214149     6.622896     0.614888
 O     4.922417     6.011838     0.355447
 H     4.462991     5.201303     0.042136
 H    -7.971195     0.431261    -3.079764
 O    -8.870373     0.485498    -3.464533
 H    -9.469483     0.179741    -2.782061
 H     6.101632     4.086589    -2.869182
 O     5.629927     3.270813    -2.618194
 H     6.221968     2.783622    -1.997341
 H    -1.323861    -6.931630    -0.538030
 O    -1.940440    -6.177198    -0.633871
 H    -2.538392    -6.412549    -1.349910
 H    -3.941802    -7.898615     0.282106
 O    -4.164294    -7.734168     1.201410
 H    -3.949982    -6.783908     1.360686
 H    -2.849911    -5.223050     0.722675
 O    -3.558358    -5.171330     1.384705
 H    -3.271643    -4.518054     2.054803
 H     5.295833    -6.684499     4.185151
 O     4.538365    -6.389021     3.676469
 H     4.829615    -6.387121     2.749239
 H    -9.581493    -5.829884    -4.392654
 O    -9.601603    -5.285010    -5.212848
 H    -10.244812    -5.700603    -5.787500
 H     6.294823    -5.787696     0.643985
 O     5.785354    -6.434731     1.174171
 H     5.327698    -6.962433     0.508986
 H    -1.344206    -7.012031     1.940135
 O    -1.484590    -7.973010     1.898137
 H    -2.444866    -8.096656     1.885548
 H    -10.092372    -3.618022    -4.750249
 O    -10.219642    -2.723535    -4.391553
 H    -9.992368    -2.100358    -5.094908
 H     0.443184     8.204849    -2.392639
 O     0.755020     9.082374    -2.694500
 H     1.659118     9.185350    -2.333734
 H    -9.107738    -7.710754    -3.194344
 O    -9.696028    -6.958080    -3.117703
 H    -9.573036    -6.612791    -2.214960
 H     2.109450     0.154180     4.657500
 O     2.208074    -0.739530     5.037701
 H     2.416870    -1.348482     4.298058
 H    -6.590820     1.101391    -7.426850
 O    -7.549040     1.173379    -7.286933
 H    -7.703853     2.041446    -6.912465
 H     6.185831     4.577002    -6.845587
 O     5.606434     4.443410    -6.095287
 H     4.758571     4.921509    -6.333982
 H    -5.342441     10.124175     1.753682
 O    -4.855377     10.227909     0.925305
 H    -5.443684     9.808271     0.267141
 H    -0.833040    -0.580271    -5.781718
 O    -1.000820     0.144229    -6.423240
 H    -0.212239     0.711220    -6.317668
 H     4.713492     0.218121    -6.925556
 O     4.796962    -0.732822    -6.796676
 H     5.646430    -0.878945    -6.343980
 H     2.523546    -8.575143    -3.456672
 O     3.480344    -8.503625    -3.449961
 H     3.703918    -7.846950    -4.126051
 H    -4.273148     0.301555    -7.806837
 O    -4.779691     1.020373    -7.398588
 H    -4.098845     1.625662    -7.027346
 H     1.376891     3.015452     7.059257
 O     2.124579     2.403558     7.204707
 H     2.936849     2.937930     7.131539
 H    -11.332949    -2.684763    -0.135962
 O    -10.913033    -2.110555     0.504749
 H    -10.183775    -1.669416     0.034418
 H    -7.374545     1.190176     7.856599
 O    -7.848829     2.034030     7.858965
 H    -7.963335     2.281881     8.775884
 H     6.198669    -8.925153    -2.027078
 O     6.276312    -8.948402    -2.985796
 H     5.389875    -9.144018    -3.314337
 H     6.601384     5.253810    -0.243780
 O     7.239085     4.620467    -0.589102
 H     7.435040     4.012624     0.152843
 H    -5.328384    -3.459501     5.616771
 O    -5.340121    -2.760908     6.307764
 H    -4.709254    -3.080839     6.975767
 H     2.651740     0.701913     7.628571
 O     3.119734    -0.127699     7.457122
 H     2.795250    -0.429515     6.582655
 H    -2.660301    -3.572312     6.808643
 O    -3.143539    -3.788486     7.635214
 H    -2.519365    -3.526762     8.327619
 H     5.814786     1.339137     6.865145
 O     5.526540     0.495925     6.511015
 H     4.643679     0.306063     6.892196
 H     2.012880    -4.777272     3.723728
 O     2.500064    -4.796047     4.560071
 H     3.198894    -5.456483     4.408070
 H     10.429263    -2.556245    -2.051746
 O     10.929579    -2.648914    -1.195954
 H     11.857691    -2.598018    -1.418087
 H     3.867676     8.490188    -2.003656
 O     3.189522     9.024894    -1.573239
 H     3.017371     8.588176    -0.719147
 H    -8.147128    -6.522002    -0.155512
 O    -8.796657    -6.044719    -0.696920
 H    -8.742691    -5.126436    -0.335090
 H    -0.755214     9.907472    -2.225685
 O    -1.693075     10.049441    -1.993004
 H    -1.752488     10.076824    -1.035623
 H     4.102203     4.329949    -3.310133
 O     3.548519     5.113826    -3.245872
 H     4.112139     5.864455    -2.965445
 H     5.160007     6.720940    -1.264908
 O     5.086970     7.022080    -2.191681
 H     5.867722     6.709132    -2.666666
 H    -0.356336     4.524648     6.638428
 O     0.361374     4.092711     6.153943
 H     1.051185     4.761683     5.926481
 H     3.223460     5.000510     5.723627
 O     2.457542     5.477585     5.371037
 H     2.401072     5.238269     4.432404
 H    -7.186191     8.905993     0.816031
 O    -6.901158     8.770161    -0.097196
 H    -6.667482     7.827505    -0.161806
 H    -1.276036    -5.398216     3.142806
 O    -0.833184    -5.221977     2.281384
 H     0.086178    -5.493561     2.346870
 H     4.274820    -2.775842     6.045597
 O     4.269543    -2.834191     5.066028
 H     3.555644    -3.462900     4.834779
 H     7.141319    -6.472913     2.584062
 O     7.521594    -6.189026     3.424814
 H     7.047654    -5.369294     3.660122
 H     9.064363    -5.214226     3.442591
 O     9.695353    -4.473140     3.374844
 H     9.431799    -3.835720     4.049876
 H     1.496687     7.510619    -7.957454
 O     2.324783     7.786032    -7.493530
 H     1.967968     8.172788    -6.672361
 H    -0.543271    -2.140569     8.014771
 O    -0.746705    -2.842206     8.649076
 H    -0.035726    -3.482666     8.556801
 H     8.353628     4.662324    -1.789027
 O     9.027012     4.758057    -2.510995
 H     9.752850     5.237418    -2.111367
 H     6.354774     5.147232    -4.649974
 O     6.682443     5.457490    -3.784797
 H     7.630488     5.294393    -3.722047
 H     10.630457     2.535976    -3.934790
 O     9.898905     2.368189    -3.342692
 H     9.518090     3.239175    -3.090631
 H     3.199706    -3.216268     7.668560
 O     4.031698    -2.706333     7.716234
 H     3.753841    -1.793224     7.885676
 H    -2.459643    -1.152073    -8.846593
 O    -2.865010    -0.895006    -8.019374
 H    -2.156631    -0.494513    -7.470169
 H     5.109763     5.188765     2.102703
 O     4.908634     4.560266     2.807544
 H     3.939962     4.575322     2.914903
 H    -3.762104    -5.854609    -5.323005
 O    -2.956171    -5.334440    -5.358035
 H    -3.190464    -4.510251    -5.813306
 H    -6.541330     5.606403     5.616308
 O    -6.108053     6.455334     5.410785
 H    -5.981872     6.467177     4.436119
 H    -7.424826     3.464914     6.635781
 O    -7.170188     3.973385     5.855567
 H    -6.927160     3.307967     5.191619
 H    -7.255460     9.157642     3.486625
 O    -7.018648     9.631479     2.663147
 H    -7.487325     10.466107     2.697922
 H    -5.934707    -7.130656     1.131062
 O    -6.551693    -6.464863     0.789333
 H    -6.019296    -5.956455     0.140728
 H    -3.712326    -5.471549     7.235009
 O    -3.948064    -6.270664     6.730301
 H    -3.159500    -6.494066     6.222372
 H     9.552496     0.857835    -0.459763
 O     9.598460     1.827106    -0.550382
 H     9.901799     1.984439    -1.450673
 H    -7.926329    -4.557377     2.964296
 O    -6.999917    -4.817742     2.935393
 H    -6.875951    -5.385258     2.147743
 H     1.112855    -2.997436     6.716170
 O     1.616121    -3.768136     7.000429
 H     1.825052    -4.263881     6.193235
 H    -3.470880    -2.254514    -6.978863
 O    -3.878509    -2.938908    -6.428218
 H    -4.828088    -2.803814    -6.490679
 H    -8.679038     7.904805     4.790906
 O    -7.888387     8.426006     4.938094
 H    -7.207302     7.798358     5.259584
 H     7.996517    -1.620412    -5.333946
 O     7.070846    -1.371451    -5.326635
 H     6.609877    -2.066621    -4.820304
 H    -4.838252    -5.500814     5.389944
 O    -4.889988    -4.844653     4.667516
 H    -5.656666    -5.041961     4.110383
 N    -0.202166     6.886061    -8.519906
 H    -0.276362     5.874444    -8.460464
 H    -0.491717     7.149006    -9.457441
 H    -0.894326     7.264233    -7.874965
