604
grain_mol38 // -1645.761096722068 // -45.0606276883 // -668.032843360368 // -1022.78888105 // -0.0451921146 // -0.583222150926 // -0.012409190453
 H    -1.779013     0.014431     2.493662
 O    -0.801501     0.048099     2.573261
 H    -0.521932    -0.834918     2.911709
 H    -0.396432    -1.842407    -2.816817
 O    -0.471279    -1.844751    -1.849798
 H    -1.419351    -1.752565    -1.658420
 H    -2.748061     1.885041     0.843301
 O    -2.649058     1.232547     0.129674
 H    -1.864491     1.511569    -0.376533
 H    -3.742794     1.924135    -3.028436
 O    -3.229982     2.259569    -3.800529
 H    -2.326698     2.400649    -3.498286
 H    -0.105466    -0.579765    -0.773828
 O     0.016358     0.161389    -0.149346
 H    -0.409425    -0.114017     0.673009
 H     0.954969    -1.930828    -4.743570
 O     0.017802    -2.113223    -4.563235
 H    -0.069120    -3.078285    -4.584731
 H    -4.947319     2.420599    -1.292797
 O    -4.578127     1.589595    -1.650238
 H    -3.900979     1.325784    -0.982848
 H    -3.559931     3.453869     2.462928
 O    -2.835622     2.833342     2.252928
 H    -2.064428     3.188522     2.732179
 H     2.554426     0.285703    -2.926624
 O     1.951294    -0.341690    -2.478157
 H     1.047278    -0.039277    -2.689495
 H    -1.139906     0.321761    -3.583700
 O    -0.335839     0.809125    -3.308990
 H    -0.586044     1.417493    -2.594247
 H     2.675903    -0.503690     0.595583
 O     2.583400    -1.261179    -0.018209
 H     2.320288    -0.894176    -0.883706
 H    -2.848821    -0.428363    -0.565246
 O    -2.984085    -0.906537    -1.394194
 H    -3.787463    -1.451252    -1.309199
 H     2.817677     1.309357    -0.803493
 O     1.996347     1.821407    -0.695848
 H     1.283576     1.174093    -0.510660
 H     0.559494     3.192184    -3.269656
 O     1.478444     3.015105    -3.029535
 H     1.482957     2.568412    -2.163422
 H     0.134118    -3.939039    -0.466251
 O    -0.102361    -4.636815    -1.119012
 H    -0.880873    -5.084822    -0.721207
 H    -6.249947     2.229683     3.000911
 O    -6.308411     2.447896     3.967883
 H    -7.057691     1.924512     4.314339
 H     1.151338    -3.639237     1.380969
 O     0.733720    -3.003873     0.770752
 H     1.412046    -2.348435     0.507463
 H    -2.908771     5.259232    -1.063521
 O    -2.726453     4.471762    -0.517024
 H    -3.613585     4.106212    -0.318225
 H    -5.505300    -1.195681     1.724401
 O    -5.233972    -0.571762     1.017777
 H    -5.340949    -1.045927     0.187814
 H    -0.332893    -3.092602     3.110514
 O    -0.026369    -2.274433     3.535636
 H     0.917961    -2.175476     3.329366
 H     5.247465     1.077571    -1.161770
 O     4.462178     0.551018    -0.954647
 H     4.693252     0.152385    -0.085692
 H     0.727959     2.473857     1.030840
 O     0.720504     2.152507     1.941705
 H     0.111841     1.394121     2.005342
 H     4.451980    -0.472466    -2.299277
 O     4.652319    -0.973392    -3.122144
 H     5.134489    -0.338958    -3.692289
 H     3.044822     3.305975    -1.031667
 O     3.922427     3.709970    -1.016745
 H     4.407969     3.404060    -1.806790
 H    -5.873746    -1.483963    -1.856490
 O    -5.343786    -2.175530    -1.403285
 H    -5.256477    -2.903037    -2.043185
 H    -4.906219    -3.992938     1.328562
 O    -5.595506    -3.369284     1.033903
 H    -5.365473    -3.099950     0.134413
 H     2.711371     2.148581    -3.679890
 O     3.386048     1.465598    -3.872469
 H     3.457510     1.410124    -4.831007
 H    -5.162806     3.966643     3.690664
 O    -4.592206     4.545884     3.174607
 H    -4.066634     5.091304     3.798292
 H     0.641410     0.982585    -4.726154
 O     1.132031     0.852355    -5.563511
 H     1.739104     0.102813    -5.390503
 H     1.024685     5.808114    -2.365456
 O     1.817809     5.490984    -1.900617
 H     2.372496     5.032263    -2.562382
 H    -2.781387    -3.458438    -1.712377
 O    -2.926204    -3.700769    -0.781457
 H    -3.694574    -4.287329    -0.743319
 H     2.078120     5.149008    -4.605026
 O     1.202776     5.229309    -5.022314
 H     1.192255     4.520260    -5.693121
 H     7.769026     1.894275    -0.918416
 O     6.981131     1.524672    -1.357539
 H     7.341807     0.829447    -1.944869
 H     4.502264     2.848223     0.314788
 O     4.836110     2.505708     1.168743
 H     4.763273     3.266035     1.782322
 H     1.071764    -3.155073    -2.111597
 O     1.930169    -3.008046    -2.533884
 H     2.016426    -2.033078    -2.582633
 H     1.181094     4.653072    -0.653039
 O     0.723443     4.194403     0.087660
 H     0.044748     4.808794     0.419935
 H    -5.743959     1.058651     1.241801
 O    -6.231403     1.888394     1.417267
 H    -7.163536     1.645961     1.184103
 H    -2.268444    -2.588846     0.318329
 O    -1.793317    -2.007116     0.941953
 H    -0.883030    -2.346957     0.944152
 H    -3.676692    -0.242267     4.292210
 O    -3.668971    -0.359574     5.269632
 H    -4.422002    -0.934932     5.534957
 H    -6.057002    -2.783691     3.281261
 O    -5.613990    -1.922161     3.354301
 H    -4.660876    -2.146826     3.356614
 H    -2.857209    -0.405718    -2.977198
 O    -2.595534    -0.486403    -3.921398
 H    -2.435020    -1.454274    -3.982590
 H    -3.435151    -3.412717    -3.653782
 O    -2.576969    -3.026350    -3.412468
 H    -1.882222    -3.662973    -3.674041
 H     3.225991    -1.173776    -4.234813
 O     2.673076    -1.305501    -5.028732
 H     3.305834    -1.486319    -5.742617
 H     4.674388     2.295900    -6.639502
 O     4.145315     1.472210    -6.639865
 H     3.307568     1.698485    -7.052187
 H    -4.183318     1.083102     5.783363
 O    -4.667435     1.911571     6.032020
 H    -5.232083     2.121333     5.260729
 H    -3.948000    -0.029471     2.018087
 O    -3.410206     0.296164     2.759927
 H    -3.328746     1.266782     2.663291
 H    -5.798200     0.577325    -2.237936
 O    -6.339148    -0.096510    -2.699475
 H    -5.911964    -0.203930    -3.571397
 H     1.902357    -3.828072    -4.064984
 O     1.837993    -4.295228    -4.920181
 H     1.461640    -5.166670    -4.706536
 H     4.484891    -3.516148    -0.589762
 O     4.761720    -2.755755    -0.031052
 H     3.997637    -2.133333    -0.043775
 H    -0.247997     3.056873    -0.924705
 O    -0.996345     2.671689    -1.410934
 H    -1.711751     3.330223    -1.290596
 H     1.759073     4.468861     1.516309
 O     2.213150     4.616741     2.365909
 H     2.024800     3.834664     2.907978
 H     3.705333     1.255085     1.639380
 O     2.935849     0.677096     1.808001
 H     2.162193     1.261423     1.927124
 H     3.156027    -3.935392    -2.018826
 O     3.856982    -4.553703    -1.699011
 H     4.534257    -4.573291    -2.392805
 H     4.982267    -3.784864    -4.468485
 O     5.413340    -3.456590    -3.641450
 H     5.004378    -2.598467    -3.410583
 H    -1.082557     5.129840     2.066398
 O    -1.263119     5.673373     1.264046
 H    -1.897163     5.167683     0.693166
 H    -5.690512     3.220420     0.456210
 O    -5.240633     3.714042    -0.255695
 H    -5.693439     4.567001    -0.419496
 H     5.032163    -3.763785     2.976049
 O     4.277852    -3.588783     2.407140
 H     4.609085    -3.315438     1.521781
 H     5.847037    -1.214788     1.363973
 O     5.446368    -0.323131     1.344290
 H     6.229648     0.259641     1.382798
 H     1.650572    -6.656928    -3.058555
 O     1.422724    -6.839646    -3.999320
 H     2.296227    -7.005478    -4.398739
 H    -7.194595    -3.577756     0.843920
 O    -8.162317    -3.578026     0.643264
 H    -8.622080    -3.375804     1.487246
 H     3.242980    -2.338438     2.838294
 O     2.555662    -1.669089     3.018534
 H     2.776336    -0.869548     2.507399
 H    -1.916478     2.788201     5.080750
 O    -2.635333     3.431799     5.221748
 H    -3.374288     2.930877     5.615925
 H    -0.809606     0.997736     3.995007
 O    -0.689649     1.559797     4.793064
 H     0.148560     2.013640     4.653620
 H     0.257491     3.409630    -6.954516
 O     1.212523     3.215479    -6.831073
 H     1.231286     2.370400    -6.342777
 H     7.161852    -2.729775     4.742068
 O     6.407800    -3.187837     4.300345
 H     5.601272    -2.830699     4.741779
 H     7.995391     1.570144     1.380495
 O     7.913217     0.645697     1.681448
 H     8.400107     0.083138     1.050431
 H    -4.085745    -0.509356    -4.638480
 O    -5.014799    -0.556618    -4.972341
 H    -5.003950    -0.192722    -5.878855
 H     6.447853    -1.375609    -2.155729
 O     6.860392    -1.819315    -1.409787
 H     6.131258    -2.093445    -0.821924
 H     4.713194    -0.713507     4.447936
 O     5.122110     0.026363     3.968525
 H     5.070067    -0.150946     3.005057
 H    -0.020221     3.393011     2.856775
 O    -0.650337     4.050368     3.214520
 H    -0.339832     4.321744     4.099990
 H     8.247035    -1.147147    -0.706154
 O     9.034537    -0.764984    -0.259105
 H     9.734639    -1.428426    -0.329542
 H     9.626389    -3.694343     2.181239
 O     9.328097    -3.516292     1.263163
 H     10.092006    -3.358591     0.697646
 H    -2.387176    -2.508123     3.893735
 O    -3.010075    -2.608344     3.163789
 H    -2.556212    -2.286021     2.344551
 H    -2.165898     0.747892    -6.271194
 O    -2.796866     1.493052    -6.319031
 H    -3.048652     1.687385    -5.392293
 H    -1.244831     3.824999    -5.538787
 O    -1.368518     3.778321    -6.515349
 H    -1.956328     3.013396    -6.648870
 H    -4.582116    -6.211011    -1.063595
 O    -5.056092    -5.461969    -0.674206
 H    -5.826598    -5.294911    -1.259430
 H     2.679876    -5.762985    -1.431648
 O     1.854889    -6.289142    -1.346229
 H     1.132310    -5.605420    -1.267358
 H     3.295505    -4.253872    -5.588467
 O     4.256019    -4.242544    -5.855868
 H     4.365234    -3.513923    -6.472573
 H     7.478029     3.567187     2.010160
 O     7.394937     3.199069     1.121410
 H     6.466090     2.863979     1.074721
 H     6.648597    -3.772507     0.378750
 O     7.139160    -4.584189     0.168515
 H     8.026867    -4.415218     0.540316
 H    -7.482535    -4.419870    -2.390678
 O    -7.249699    -5.345728    -2.155481
 H    -7.870485    -5.609818    -1.449578
 H    -4.394873     6.882382     4.857003
 O    -3.507660     6.546617     4.627730
 H    -3.023180     6.352124     5.444555
 H     7.268168     3.692287     4.777574
 O     7.266282     3.280248     3.903725
 H     7.522910     2.349887     4.051187
 H    -5.791072     1.017546     6.943447
 O    -6.558707     0.476758     7.242047
 H    -6.280395    -0.445918     7.118750
 H    -0.454283    -4.833664    -2.839701
 O    -0.628751    -4.749887    -3.794397
 H    -1.218034    -5.468110    -4.058735
 H     6.721673     0.378925     4.325221
 O     7.690855     0.573676     4.278359
 H     7.903341     0.518372     3.319733
 H     4.803728    -6.626768    -3.788704
 O     4.121283    -6.788914    -4.473085
 H     4.268551    -6.121471    -5.150648
 H    -5.909148    -1.907774    -5.206833
 O    -6.522553    -2.675508    -5.307222
 H    -7.377335    -2.261122    -5.593609
 H    -7.656159     0.752987     6.027248
 O    -8.219949     1.073097     5.278133
 H    -8.833318     1.703665     5.659153
 H    -5.242523     5.813681     2.230101
 O    -5.482788     6.721586     1.953949
 H    -4.627206     7.198482     1.928729
 H     5.770622     1.636484    -4.026123
 O     6.011341     0.847553    -4.558755
 H     5.516948     0.925609    -5.377065
 H    -5.886611     6.500142     0.305254
 O    -5.913365     6.261525    -0.644954
 H    -5.025021     6.497495    -0.986669
 H    -0.248743    -7.541222    -3.278796
 O    -0.957250    -7.717617    -2.633543
 H    -0.498543    -7.819392    -1.789100
 H    -2.512699    -1.478449     5.552974
 O    -1.857311    -2.200966     5.702704
 H    -1.025287    -1.728086     5.893955
 H     7.538858    -4.425777    -1.495020
 O     7.660027    -4.420232    -2.468354
 H     6.879584    -3.958456    -2.820247
 H    -8.817182    -2.943540    -3.226513
 O    -7.895488    -2.855738    -2.891257
 H    -7.352788    -2.673090    -3.673507
 H     8.837762    -3.246378    -2.869338
 O     9.467718    -2.522087    -3.073647
 H     8.963293    -1.693348    -2.988741
 H    -5.072294    -4.965170    -3.506157
 O    -5.040674    -4.000799    -3.388710
 H    -5.562085    -3.618759    -4.105604
 H    -3.671750     4.013013    -3.569122
 O    -3.384709     4.872838    -3.221032
 H    -3.674793     5.561631    -3.820322
 H    -0.269308     4.750580    -4.102759
 O    -0.923472     4.059577    -3.895360
 H    -1.707677     4.507321    -3.518795
 H    -1.921064    -3.962927     5.422929
 O    -2.211653    -4.829059     5.096488
 H    -3.145981    -4.690890     4.861469
 H    -2.442465     8.385711    -3.852268
 O    -2.643233     7.431873    -3.944421
 H    -2.445040     7.183260    -4.874202
 H    -3.007014     7.402361     3.149618
 O    -2.936750     7.584878     2.197580
 H    -2.336475     6.892011     1.854039
 H     4.810073     1.687971     4.165017
 O     4.650477     2.640005     3.985129
 H     5.522754     3.000903     3.737665
 H     7.896877    -1.591211     6.264967
 O     8.337768    -1.800367     5.418485
 H     8.290738    -0.960146     4.920991
 H     6.042229    -1.328076     7.778975
 O     6.744081    -0.807744     7.375636
 H     6.281882    -0.063912     6.928575
 H    -1.770285     5.612136    -6.531982
 O    -1.908477     6.554842    -6.352298
 H    -1.039566     6.982042    -6.457096
 H    -8.185839    -0.112057     3.976036
 O    -8.000749    -0.659525     3.199932
 H    -7.094637    -1.001052     3.304297
 H    -8.518570     0.160646     0.219186
 O    -8.550007     0.810920     0.940353
 H    -8.519188     0.278781     1.753641
 H     0.846713    -0.403994     5.920327
 O     0.014337    -0.473911     6.444099
 H    -0.491641     0.293418     6.124828
 H    -0.495141     7.041964    -1.752705
 O    -0.453033     6.643201    -2.645010
 H    -1.309339     6.832631    -3.090504
 H     0.646744    -8.054233     0.827556
 O    -0.246058    -8.353697     0.543752
 H    -0.731256    -8.380678     1.400072
 H     2.013427     2.805532     5.205491
 O     2.022131     2.510088     4.270438
 H     2.962553     2.532934     4.015329
 H    -7.968091    -5.557888    -5.410747
 O    -7.071925    -5.418321    -5.758399
 H    -6.922311    -4.464437    -5.721279
 H     3.061392    -7.436956     1.102805
 O     2.149688    -7.110801     1.114078
 H     2.052612    -6.781684     0.171979
 H     3.288604     5.642856    -7.499775
 O     3.444572     4.680238    -7.606868
 H     2.617551     4.230866    -7.373426
 H    -0.543682     7.038345     0.417475
 O    -0.241577     7.735698    -0.188576
 H    -0.919307     8.425362    -0.146120
 H     4.430745     3.798513     5.166576
 O     4.343518     4.457589     5.897136
 H     5.225607     4.528652     6.271590
 H     7.644360     2.983177     6.757044
 O     7.113057     3.818786     6.669888
 H     7.599513     4.488627     7.149086
 H     4.192309    -7.972101    -0.957895
 O     4.661114    -7.434127    -0.277521
 H     5.098529    -6.761489    -0.832547
 H     6.729921    -5.920371    -2.600238
 O     5.960365    -6.513251    -2.534748
 H     6.293501    -7.426174    -2.456201
 H    -8.986222    -2.053086     3.060806
 O    -9.467992    -2.877286     2.837248
 H    -10.207557    -2.583584     2.278429
 H    -2.709647     8.804182     0.885095
 O    -2.571242     9.147157    -0.013461
 H    -3.369884     9.703158    -0.190993
 H     8.104823     0.844038     7.335409
 O     8.442743     1.533497     6.753541
 H     8.293859     1.192353     5.854628
 H    -2.376351     5.275960     7.598952
 O    -2.098101     5.481339     6.707548
 H    -2.287919     4.665738     6.154314
 H    -6.288117    -6.422989    -3.201654
 O    -5.619626    -6.630969    -3.879931
 H    -6.061626    -6.359217    -4.713546
 H     6.796625    -2.675480     2.720259
 O     6.916849    -2.427420     1.784798
 H     7.863180    -2.507480     1.595406
 H     2.299006     6.751780    -0.934792
 O     2.552445     7.502184    -0.351665
 H     1.707961     7.841616    -0.030492
 H    -4.183034    -7.348497    -2.741731
 O    -3.605046    -7.388327    -1.970410
 H    -2.701837    -7.493692    -2.318859
 H     0.841220     6.672898    -5.730607
 O     0.664662     7.537446    -6.169598
 H     0.681625     8.182108    -5.432309
 H    -8.282233    -1.630290    -1.610585
 O    -8.573355    -1.348952    -0.729310
 H    -8.340341    -2.127456    -0.175112
 H    -3.304139     7.125449    -2.285439
 O    -3.399807     6.960789    -1.337662
 H    -3.098794     7.771951    -0.876870
 H     2.831010    -4.466070     2.398042
 O     1.917131    -4.813646     2.411336
 H     1.980702    -5.707041     2.013758
 H    -8.842323    -0.804521    -4.983358
 O    -8.753471    -1.394309    -5.768088
 H    -8.471349    -0.805374    -6.490192
 H     7.525278    -0.038306    -3.915338
 O     8.170865    -0.057954    -3.190074
 H     8.842156     0.605569    -3.402809
 H     4.191658     6.737207    -0.190432
 O     4.901863     6.101326    -0.373392
 H     4.444969     5.258866    -0.592150
 H    -7.970683     0.134670    -3.182262
 O    -8.868779     0.140913    -3.573255
 H    -9.469945    -0.082426    -2.861327
 H     6.096910     3.816218    -3.345650
 O     5.624055     3.035127    -3.003755
 H     6.214521     2.621755    -2.329772
 H    -1.307955    -6.928703     0.243684
 O    -1.912864    -6.177989     0.054988
 H    -2.513839    -6.509400    -0.628243
 H    -3.946403    -7.736246     1.141808
 O    -4.166500    -7.469303     2.037191
 H    -3.956421    -6.505806     2.086156
 H    -2.854287    -5.025984     1.272598
 O    -3.565358    -4.902890     1.920794
 H    -3.285088    -4.173755     2.511740
 H     5.278426    -6.060531     4.910555
 O     4.521704    -5.827955     4.369119
 H     4.816381    -5.934605     3.448496
 H    -9.567758    -6.239694    -3.761514
 O    -9.584741    -5.794858    -4.639865
 H    -10.226053    -6.274748    -5.164330
 H     6.288538    -5.581748     1.297577
 O     5.778502    -6.162094     1.899060
 H     5.325115    -6.764558     1.294875
 H    -1.351256    -6.659593     2.699815
 O    -1.492145    -7.619800     2.766621
 H    -2.452502    -7.744455     2.762741
 H    -10.079671    -4.085021    -4.377641
 O    -10.209897    -3.155460    -4.125209
 H    -9.980734    -2.617250    -4.895080
 H     0.426692     7.949819    -3.375960
 O     0.743826     8.778590    -3.791874
 H     1.645225     8.927386    -3.437717
 H    -9.095602    -7.967265    -2.349345
 O    -9.685459    -7.212100    -2.363337
 H    -9.566623    -6.763051    -1.506891
 H     2.080358     0.780432     4.571740
 O     2.177906    -0.062653     5.054112
 H     2.391592    -0.753157     4.391259
 H    -6.574598     0.294728    -7.572659
 O    -7.533543     0.380605    -7.444300
 H    -7.689952     1.287204    -7.177123
 H     6.206494     3.828119    -7.348888
 O     5.618169     3.776918    -6.595576
 H     4.770452     4.228514    -6.895485
 H    -5.373813     10.330080     0.496998
 O    -4.883815     10.337487    -0.336118
 H    -5.469199     9.842588    -0.942716
 H    -0.816595    -1.172449    -5.721163
 O    -0.984467    -0.528862    -6.443708
 H    -0.200501     0.052235    -6.403201
 H     4.728916    -0.502837    -6.929389
 O     4.813781    -1.432345    -6.691758
 H     5.660833    -1.524031    -6.220486
 H     2.654132    -9.317796    -2.166680
 O     3.588320    -8.995724    -2.320427
 H     3.548298    -8.418093    -3.095393
 H    -4.254593    -0.538818    -7.848314
 O    -4.765585     0.219045    -7.525443
 H    -4.087262     0.867327    -7.227374
 H     1.334606     3.901374     6.620384
 O     2.082431     3.312056     6.839535
 H     2.894384     3.835423     6.706932
 H    -11.339956    -2.622160     0.092211
 O    -10.922483    -1.977900     0.664201
 H    -10.192652    -1.592159     0.148242
 H    -7.417363     2.165527     7.593316
 O    -7.893233     3.002771     7.495392
 H    -8.011151     3.356118     8.376603
 H     6.213634    -9.005135    -0.997466
 O     6.295606    -9.147346    -1.945223
 H     5.399602    -9.362874    -2.245969
 H     6.584069     5.281450    -0.874400
 O     7.224696     4.614101    -1.141211
 H     7.417861     4.096203    -0.333155
 H    -5.356182    -2.710037     5.918729
 O    -5.371815    -1.936031     6.523647
 H    -4.742743    -2.174345     7.226570
 H     2.610264     1.672399     7.460345
 O     3.079574     0.829015     7.388984
 H     2.759492     0.426795     6.554167
 H    -2.692492    -2.678016     7.125340
 O    -3.178752    -2.797735     7.969590
 H    -2.557735    -2.455617     8.629066
 H     5.775284     2.222180     6.639489
 O     5.489546     1.342816     6.385438
 H     4.605518     1.197091     6.782738
 H     1.995614    -4.226269     4.218591
 O     2.477903    -4.147522     5.054191
 H     3.179802    -4.818514     4.981672
 H     10.428628    -2.679705    -1.744046
 O     10.926993    -2.669591    -0.881618
 H     11.855571    -2.646631    -1.106170
 H     3.848257     8.285127    -3.016573
 O     3.167809     8.864925    -2.652630
 H     2.995912     8.530633    -1.753365
 H    -8.149037    -6.429980     0.533396
 O    -8.796718    -6.020583    -0.062786
 H    -8.745544    -5.066046     0.189426
 H    -0.769617     9.659753    -3.412275
 O    -1.707976     9.826835    -3.201894
 H    -1.772832     9.963565    -2.254235
 H     4.098694     4.001830    -3.818267
 O     3.544596     4.787313    -3.855790
 H     4.104717     5.567103    -3.660555
 H     5.145138     6.616193    -2.064910
 O     5.073246     6.808079    -3.020249
 H     5.855151     6.444335    -3.455328
 H    -0.399075     5.348148     6.019981
 O     0.321078     4.863818     5.592058
 H     1.010942     5.502791     5.290436
 H     3.183416     5.720173     5.069101
 O     2.418289     6.151681     4.660458
 H     2.365714     5.804040     3.756045
 H    -7.212648     9.007087    -0.298382
 O    -6.923241     8.767065    -1.188479
 H    -6.688463     7.823519    -1.142793
 H    -1.290746    -4.916967     3.702479
 O    -0.846959    -4.850157     2.826088
 H     0.075710    -5.099146     2.928410
 H     4.244034    -1.963523     6.300474
 O     4.242019    -2.135005     5.334453
 H     3.530861    -2.788484     5.175035
 H     7.128841    -6.034454     3.303336
 O     7.505796    -5.653818     4.106938
 H     7.029933    -4.813129     4.242672
 H     9.046745    -4.680619     4.016358
 O     9.677743    -3.951526     3.866809
 H     9.409614    -3.240090     4.461165
 H     3.016120     7.840579    -8.175075
 O     3.022421     7.318448    -7.374170
 H     2.150371     7.475167    -6.936935
 H    -0.582334    -1.111537     8.164061
 O    -0.787593    -1.735057     8.874824
 H    -0.074802    -2.380008     8.860918
 H     8.343063     4.516771    -2.333807
 O     9.018974     4.529966    -3.059715
 H     9.743200     5.052280    -2.714742
 H     6.356650     4.658339    -5.238600
 O     6.679208     5.071834    -4.416090
 H     7.626799     4.917722    -4.328289
 H     10.631460     2.158964    -4.208552
 O     9.897476     2.060368    -3.604104
 H     9.514281     2.953833    -3.456679
 H     3.163116    -2.213299     7.959697
 O     3.994165    -1.699834     7.951315
 H     3.714630    -0.773585     8.011142
 H    -2.434501    -2.097359    -8.705494
 O    -2.843172    -1.752725    -7.912452
 H    -2.138790    -1.285770    -7.412734
 H     5.083471     5.488051     1.457837
 O     4.880402     4.946592     2.231060
 H     3.911244     4.971558     2.331759
 H    -3.747800    -6.361007    -4.663054
 O    -2.941074    -5.848905    -4.752565
 H    -3.171195    -5.083389    -5.302868
 H    -6.581689     6.291768     4.855842
 O    -6.148836     7.111774     4.554472
 H    -6.018547     7.010092     3.585522
 H    -7.466228     4.282004     6.115154
 O    -7.209337     4.696518     5.281922
 H    -6.962639     3.958756     4.700969
 H    -7.292162     9.569101     2.324449
 O    -7.052533     9.944194     1.452335
 H    -7.523426     10.775737     1.387128
 H    -5.940246    -6.880252     1.891420
 O    -6.556488    -6.261247     1.470369
 H    -6.022628    -5.830115     0.769307
 H    -3.744050    -4.516294     7.766733
 O    -3.976403    -5.369399     7.357734
 H    -3.185140    -5.648676     6.882753
 H     9.541587     0.895413    -0.565249
 O     9.587467     1.847689    -0.768452
 H     9.893356     1.898369    -1.680110
 H    -7.942541    -4.113600     3.403178
 O    -7.015976    -4.375187     3.408467
 H    -6.888733    -5.029534     2.692225
 H     1.080563    -2.110937     6.980127
 O     1.582471    -2.843040     7.354493
 H     1.796669    -3.428393     6.611156
 H    -3.450024    -2.981323    -6.723698
 O    -3.860756    -3.597124    -6.098851
 H    -4.809772    -3.469088    -6.181408
 H    -8.719291     8.474144     3.759966
 O    -7.930094     9.010518     3.848938
 H    -7.249311     8.425667     4.243549
 H     8.007492    -2.140567    -5.122228
 O     7.082743    -1.889304    -5.146344
 H     6.618217    -2.523072    -4.566830
 H    -4.862443    -4.762868     5.933659
 O    -4.911631    -4.196755     5.138499
 H    -5.676920    -4.457909     4.606375
 N     1.104941    -10.124460    -1.732004
 H     0.681472    -9.822007    -0.854818
 H     1.284802    -11.120858    -1.652628
 H     0.393173    -10.002710    -2.447681
