604
grain_mol13 // -1574.407273025561 // -39.993590543 // -591.615215368562 // -1022.7856482 // -0.0348334554 // -0.583140895231 // -0.009338209586
 H    -1.755256    -0.241329     2.471900
 O    -0.777160    -0.196305     2.539825
 H    -0.477745    -1.099365     2.798880
 H    -0.435535    -1.629708    -2.994963
 O    -0.491387    -1.711167    -2.030361
 H    -1.437347    -1.655897    -1.815320
 H    -2.784814     1.741248     0.996867
 O    -2.687351     1.151598     0.230425
 H    -1.916093     1.484282    -0.263282
 H    -3.847347     2.079165    -2.842466
 O    -3.353667     2.486888    -3.592145
 H    -2.447716     2.618070    -3.293555
 H    -0.129132    -0.533715    -0.859233
 O    -0.008993     0.156235    -0.178115
 H    -0.415315    -0.194698     0.625181
 H     0.885307    -1.536367    -4.943266
 O    -0.045485    -1.749558    -4.764910
 H    -0.119050    -2.711074    -4.861094
 H    -5.029465     2.409374    -1.052555
 O    -4.652128     1.618086    -1.483767
 H    -3.959675     1.311655    -0.851171
 H    -3.595156     3.156716     2.752654
 O    -2.863795     2.569607     2.480537
 H    -2.090867     2.897684     2.975810
 H     2.477194     0.554657    -2.975762
 O     1.893383    -0.119718    -2.572511
 H     0.980378     0.182373    -2.742216
 H    -1.227420     0.575366    -3.568574
 O    -0.426905     1.053981    -3.268363
 H    -0.675061     1.596375    -2.501660
 H     2.674220    -0.519389     0.467228
 O     2.586967    -1.224338    -0.206676
 H     2.299256    -0.792743    -1.033460
 H    -2.870085    -0.452451    -0.595233
 O    -3.012672    -0.859757    -1.459911
 H    -3.803183    -1.427214    -1.406872
 H     2.760072     1.404049    -0.779762
 O     1.932449     1.890874    -0.617987
 H     1.233739     1.217781    -0.474513
 H     0.428252     3.441515    -3.046601
 O     1.354232     3.262434    -2.836536
 H     1.381021     2.746329    -2.010270
 H     0.176041    -3.905221    -0.831840
 O    -0.055047    -4.550749    -1.538276
 H    -0.820935    -5.045741    -1.167787
 H    -6.254284     1.842906     3.230562
 O    -6.299867     1.980655     4.213014
 H    -7.033568     1.416352     4.527153
 H     1.215993    -3.741714     1.007856
 O     0.775613    -3.058195     0.465752
 H     1.440057    -2.374303     0.247485
 H    -3.036268     5.256402    -0.622950
 O    -2.830821     4.430513    -0.145868
 H    -3.707949     4.033350     0.036386
 H    -5.473228    -1.452152     1.664861
 O    -5.225576    -0.766816     1.008049
 H    -5.337678    -1.174071     0.143816
 H    -0.246731    -3.362011     2.804911
 O     0.056129    -2.577831     3.294638
 H     0.991488    -2.435528     3.072795
 H     5.187221     1.248304    -1.194229
 O     4.415263     0.691139    -1.020279
 H     4.666776     0.226951    -0.190390
 H     0.682469     2.375552     1.177085
 O     0.696866     1.980795     2.058486
 H     0.102602     1.208364     2.069583
 H     4.398242    -0.219158    -2.443128
 O     4.594317    -0.646839    -3.307651
 H     5.053940     0.042407    -3.830911
 H     2.949275     3.417023    -0.845865
 O     3.820094     3.834580    -0.812269
 H     4.296325     3.603546    -1.632677
 H    -5.899532    -1.452341    -1.921846
 O    -5.349536    -2.167871    -1.535382
 H    -5.260766    -2.840000    -2.233104
 H    -4.834118    -4.195719     1.031514
 O    -5.538881    -3.562020     0.799901
 H    -5.328145    -3.217747    -0.078400
 H     2.589806     2.474970    -3.574993
 O     3.273183     1.823258    -3.834497
 H     3.327636     1.848130    -4.795387
 H    -5.185129     3.536844     4.043516
 O    -4.633590     4.167428     3.568459
 H    -4.106434     4.668686     4.226749
 H     0.521746     1.360885    -4.680997
 O     1.000992     1.309180    -5.533554
 H     1.622577     0.558724    -5.432563
 H     0.864047     5.982912    -1.937198
 O     1.670707     5.643560    -1.513044
 H     2.220992     5.250504    -2.219134
 H    -2.772445    -3.374924    -1.990666
 O    -2.902373    -3.686353    -1.078981
 H    -3.652917    -4.296954    -1.076465
 H     1.889710     5.529214    -4.240138
 O     1.006197     5.627584    -4.635616
 H     0.995748     4.975674    -5.362038
 H     7.698180     2.088975    -0.924060
 O     6.909722     1.741568    -1.379847
 H     7.271957     1.103800    -2.027868
 H     4.437633     2.877830     0.434373
 O     4.793273     2.473004     1.251493
 H     4.716894     3.178586     1.926964
 H     1.069823    -2.971853    -2.421252
 O     1.916544    -2.773174    -2.847324
 H     1.984366    -1.795964    -2.814713
 H     1.069862     4.694440    -0.328379
 O     0.633616     4.168248     0.379477
 H    -0.050207     4.740238     0.771674
 H    -5.759010     0.829358     1.373564
 O    -6.257227     1.633206     1.624168
 H    -7.189043     1.393230     1.386796
 H    -2.238532    -2.665350     0.099507
 O    -1.761394    -2.126821     0.759531
 H    -0.846333    -2.451952     0.719240
 H    -3.617182    -0.679500     4.273122
 O    -3.591014    -0.874919     5.237634
 H    -4.328708    -1.484947     5.466401
 H    -5.970941    -3.172077     3.093697
 O    -5.542063    -2.311189     3.231251
 H    -4.585257    -2.517643     3.199274
 H    -2.921127    -0.230473    -2.997190
 O    -2.673804    -0.228203    -3.948874
 H    -2.499231    -1.185154    -4.091878
 H    -3.458970    -3.182588    -3.908862
 O    -2.602280    -2.800303    -3.655008
 H    -1.903012    -3.403809    -3.975351
 H     3.150582    -0.780332    -4.409656
 O     2.587509    -0.859089    -5.203402
 H     3.211236    -0.965849    -5.939613
 H     4.498320     2.900818    -6.543823
 O     3.983992     2.069977    -6.604112
 H     3.135059     2.314072    -6.982066
 H    -4.120749     0.509993     5.876038
 O    -4.613980     1.306878     6.199732
 H    -5.195672     1.568383     5.457492
 H    -3.931340    -0.286057     2.028961
 O    -3.386167    -0.011538     2.786087
 H    -3.323762     0.964886     2.768121
 H    -5.865195     0.634722    -2.132793
 O    -6.403227    -0.007662    -2.640100
 H    -5.988802    -0.036356    -3.524126
 H     1.873388    -3.466076    -4.434854
 O     1.810617    -3.867635    -5.323683
 H     1.429636    -4.749586    -5.181608
 H     4.512546    -3.390323    -0.989173
 O     4.789007    -2.671418    -0.379219
 H     4.012543    -2.066225    -0.324336
 H    -0.336185     3.099677    -0.707930
 O    -1.085665     2.742554    -1.213244
 H    -1.810580     3.374787    -1.026915
 H     1.688387     4.343151     1.809090
 O     2.155440     4.429015     2.660253
 H     1.989084     3.602110     3.139470
 H     3.691200     1.167713     1.635722
 O     2.934912     0.563819     1.767947
 H     2.153249     1.121458     1.947539
 H     3.165547    -3.715035    -2.426368
 O     3.884079    -4.345790    -2.175185
 H     4.549983    -4.285431    -2.877600
 H     4.947349    -3.328557    -4.886367
 O     5.386570    -3.064171    -4.041190
 H     4.968865    -2.234174    -3.733405
 H    -1.153897     4.904658     2.456249
 O    -1.357470     5.508717     1.704254
 H    -1.992851     5.039895     1.103993
 H    -5.755827     3.048478     0.767716
 O    -5.326608     3.607959     0.092537
 H    -5.797431     4.462374     0.006526
 H     5.120982    -3.938845     2.531694
 O     4.358646    -3.703170     1.997867
 H     4.672597    -3.359714     1.132435
 H     5.867587    -1.233232     1.125265
 O     5.453589    -0.349724     1.183383
 H     6.227543     0.241580     1.258223
 H     1.663592    -6.391574    -3.563676
 O     1.470361    -6.546312    -4.514019
 H     2.339679    -6.575902    -4.939740
 H    -7.136486    -3.784632     0.617789
 O    -8.107768    -3.785227     0.433352
 H    -8.555797    -3.662676     1.298476
 H     3.307232    -2.522568     2.544302
 O     2.614055    -1.879395     2.789050
 H     2.813970    -1.038757     2.339763
 H    -1.895562     2.308585     5.280415
 O    -2.622475     2.925301     5.485766
 H    -3.346067     2.379905     5.848481
 H    -0.777498     0.633463     4.033686
 O    -0.653173     1.131375     4.872795
 H     0.175035     1.609659     4.757784
 H     0.058374     3.955435    -6.695373
 O     1.018721     3.769226    -6.604028
 H     1.060090     2.887653    -6.186947
 H     7.292809    -3.015355     4.320123
 O     6.528562    -3.461684     3.878746
 H     5.738949    -3.157197     4.415286
 H     7.969537     1.581024     1.336494
 O     7.909836     0.633454     1.561671
 H     8.394181     0.134169     0.877981
 H    -4.176205    -0.219943    -4.641440
 O    -5.109890    -0.256004    -4.963383
 H    -5.121013     0.180769    -5.836957
 H     6.411989    -1.090242    -2.405103
 O     6.845328    -1.590988    -1.708639
 H     6.130922    -1.923334    -1.132016
 H     4.783617    -1.011867     4.256154
 O     5.168791    -0.224776     3.833935
 H     5.101942    -0.322659     2.860352
 H    -0.048915     3.128215     3.084091
 O    -0.682945     3.743309     3.504578
 H    -0.362192     3.945774     4.404615
 H     8.230827    -0.951401    -0.971785
 O     9.019625    -0.592435    -0.507983
 H     9.729906    -1.234334    -0.643748
 H     9.716495    -3.678343     1.671128
 O     9.390152    -3.452407     0.773475
 H     10.137140    -3.232138     0.206013
 H    -2.295364    -2.881032     3.668708
 O    -2.930713    -2.927924     2.944409
 H    -2.495684    -2.535173     2.145945
 H    -2.307255     1.202250    -6.195201
 O    -2.950823     1.937640    -6.171536
 H    -3.190353     2.050165    -5.228063
 H    -1.425843     4.225426    -5.226792
 O    -1.565206     4.256649    -6.201905
 H    -2.142430     3.494641    -6.388422
 H    -4.513705    -6.203926    -1.538587
 O    -4.994094    -5.496307    -1.083125
 H    -5.776262    -5.297944    -1.641513
 H     2.747676    -5.573145    -1.977317
 O     1.955158    -6.143952    -1.922679
 H     1.181494    -5.541141    -1.747874
 H     3.250987    -3.738239    -6.012507
 O     4.205915    -3.691296    -6.294538
 H     4.293162    -2.911127    -6.848809
 H     7.429811     3.509488     2.135338
 O     7.337825     3.213462     1.220908
 H     6.413620     2.867033     1.161604
 H     6.696936    -3.685349    -0.080979
 O     7.198974    -4.465626    -0.369383
 H     8.088894    -4.312635     0.003952
 H    -7.467287    -4.362774    -2.669226
 O    -7.215630    -5.300630    -2.517163
 H    -7.817495    -5.633596    -1.824245
 H    -4.446645     6.360880     5.434175
 O    -3.557699     6.062104     5.164069
 H    -3.056151     5.809447     5.954230
 H     7.265837     3.402489     4.906813
 O     7.257017     3.063274     4.002235
 H     7.530657     2.128684     4.068971
 H    -5.706340     0.319935     7.052276
 O    -6.459327    -0.257357     7.317844
 H    -6.167697    -1.161576     7.113936
 H    -0.441621    -4.614437    -3.258718
 O    -0.629396    -4.455587    -4.201870
 H    -1.212201    -5.159824    -4.513835
 H     6.766817     0.125949     4.191870
 O     7.732364     0.340530     4.146746
 H     7.929108     0.370593     3.183705
 H     4.854959    -6.194257    -4.442107
 O     4.153981    -6.340162    -5.113498
 H     4.252608    -5.622878    -5.748342
 H    -5.985344    -1.600056    -5.293899
 O    -6.587278    -2.367719    -5.448245
 H    -7.453848    -1.947120    -5.685466
 H    -7.582232     0.097205     6.147218
 O    -8.164245     0.467849     5.436340
 H    -8.781597     1.053405     5.877878
 H    -5.321535     5.495999     2.742049
 O    -5.581827     6.419026     2.545444
 H    -4.735023     6.911891     2.545934
 H     5.651101     2.049537    -4.010937
 O     5.895956     1.311465    -4.610676
 H     5.385954     1.447965    -5.411624
 H    -6.010405     6.326109     0.890691
 O    -6.049731     6.166471    -0.075484
 H    -5.171394     6.445322    -0.410533
 H    -0.183753    -7.173320    -3.676416
 O    -0.870014    -7.359148    -3.025051
 H    -0.450519    -7.748960    -2.248854
 H    -2.410159    -1.992364     5.409182
 O    -1.740173    -2.712344     5.489325
 H    -0.912893    -2.242183     5.705285
 H     7.566226    -4.164909    -2.015822
 O     7.666494    -4.084579    -2.988923
 H     6.876684    -3.601214    -3.287280
 H    -8.840733    -2.847453    -3.360050
 O    -7.915304    -2.769080    -3.033200
 H    -7.388861    -2.514975    -3.806471
 H     8.819730    -2.854384    -3.310098
 O     9.433062    -2.104807    -3.464697
 H     8.916911    -1.294569    -3.303398
 H    -5.066698    -4.771369    -3.863222
 O    -5.048478    -3.818784    -3.669097
 H    -5.589708    -3.389986    -4.343401
 H    -3.820809     4.206187    -3.209457
 O    -3.542163     5.040124    -2.797230
 H    -3.855315     5.769821    -3.333103
 H    -0.441684     5.048269    -3.734767
 O    -1.079854     4.330279    -3.575192
 H    -1.865360     4.730442    -3.150639
 H    -1.779494    -4.446937     5.066216
 O    -2.061673    -5.289308     4.676844
 H    -3.000941    -5.148683     4.464827
 H    -2.671492     8.609664    -3.151711
 O    -2.857339     7.663058    -3.318821
 H    -2.671418     7.495151    -4.268953
 H    -3.097768     7.044634     3.753517
 O    -3.046723     7.306217     2.818835
 H    -2.441172     6.654713     2.409864
 H     4.831750     1.409259     4.170323
 O     4.653629     2.370019     4.072890
 H     5.514748     2.766031     3.841260
 H     8.007331    -1.969104     5.945394
 O     8.440722    -2.103015     5.079833
 H     8.368336    -1.227282     4.650507
 H     6.171825    -1.866951     7.504492
 O     6.862040    -1.306902     7.135439
 H     6.382810    -0.535952     6.756647
 H    -1.998913     6.077908    -6.060922
 O    -2.149869     7.000102    -5.802325
 H    -1.290291     7.450253    -5.885295
 H    -8.132341    -0.606531     4.040585
 O    -7.951682    -1.084142     3.218770
 H    -7.038425    -1.417385     3.279921
 H    -8.535011    -0.032305     0.324668
 O    -8.565115     0.556180     1.097243
 H    -8.510932    -0.040381     1.863288
 H     0.935576    -0.890948     5.810574
 O     0.114005    -1.016662     6.340567
 H    -0.410535    -0.235755     6.092288
 H    -0.665594     7.134004    -1.200887
 O    -0.631841     6.811095    -2.123713
 H    -1.499081     7.020097    -2.538320
 H     0.742846    -7.994947    -0.003930
 O    -0.162852    -8.246419    -0.243544
 H    -0.594400    -8.378016     0.628188
 H     2.034968     2.387821     5.343773
 O     2.032544     2.171334     4.387395
 H     2.967909     2.230829     4.120395
 H    -7.985480    -5.257454    -5.765196
 O    -7.099229    -5.072229    -6.116884
 H    -6.964463    -4.122547    -6.000948
 H     3.198852    -7.527222     0.475270
 O     2.300376    -7.189169     0.453969
 H     2.203233    -6.788599    -0.446509
 H     3.041053     6.281276    -7.103120
 O     3.211659     5.333693    -7.291535
 H     2.396504     4.851564    -7.082828
 H    -0.676377     6.951318     0.961903
 O    -0.396514     7.701659     0.410875
 H    -1.085188     8.372808     0.520720
 H     4.434109     3.424513     5.348481
 O     4.348930     4.020097     6.131817
 H     5.236068     4.076478     6.496576
 H     7.689017     2.541218     6.814678
 O     7.142065     3.370953     6.805266
 H     7.625065     4.008460     7.329904
 H     4.178716    -7.791478    -1.660074
 O     4.701650    -7.291276    -1.012234
 H     5.115670    -6.595999    -1.548080
 H     6.765087    -5.570857    -3.225147
 O     6.010600    -6.188329    -3.203943
 H     6.367940    -7.094433    -3.200286
 H    -8.915733    -2.479760     2.980952
 O    -9.388129    -3.291135     2.698553
 H    -10.141372    -2.965920     2.176713
 H    -2.863527     8.632730     1.607757
 O    -2.746419     9.051184     0.738609
 H    -3.557572     9.604809     0.620158
 H     8.194106     0.371340     7.208017
 O     8.512435     1.110640     6.678820
 H     8.351962     0.841844     5.757564
 H    -2.353966     4.572159     8.001929
 O    -2.094376     4.855155     7.126296
 H    -2.280116     4.084282     6.510729
 H    -6.250870    -6.271934    -3.663512
 O    -5.592142    -6.407176    -4.368935
 H    -6.054715    -6.076684    -5.169123
 H     6.863584    -2.789067     2.341087
 O     6.966190    -2.458140     1.429288
 H     7.910299    -2.503854     1.219533
 H     2.146843     6.829257    -0.454257
 O     2.397724     7.533799     0.184555
 H     1.553256     7.829958     0.546147
 H    -4.121156    -7.193473    -3.319287
 O    -3.544175    -7.277576    -2.551543
 H    -2.637851    -7.357163    -2.899857
 H     0.607678     7.117397    -5.216533
 O     0.409301     8.011757    -5.579986
 H     0.427705     8.593803    -4.792341
 H    -8.300116    -1.662387    -1.649459
 O    -8.580971    -1.459543    -0.743589
 H    -8.324663    -2.276555    -0.259172
 H    -3.484363     7.209321    -1.680451
 O    -3.560460     6.965844    -0.748019
 H    -3.265484     7.741864    -0.226876
 H     2.916377    -4.623535     1.959347
 O     2.003504    -4.964980     1.907742
 H     2.084061    -5.836130     1.471186
 H    -8.932675    -0.572728    -4.933643
 O    -8.847702    -1.094102    -5.765854
 H    -8.587967    -0.442915    -6.441291
 H     7.435014     0.406456    -4.066124
 O     8.094656     0.336232    -3.356753
 H     8.750055     1.028340    -3.523290
 H     4.052064     6.788378     0.256228
 O     4.769755     6.182838     0.010154
 H     4.323331     5.352962    -0.269760
 H    -8.045927     0.231125    -3.076058
 O    -8.950825     0.253854    -3.450607
 H    -9.535181    -0.040186    -2.750442
 H     5.951625     4.171907    -3.159026
 O     5.498756     3.356329    -2.875505
 H     6.107216     2.900960    -2.246342
 H    -1.220901    -6.905155    -0.360938
 O    -1.855055    -6.167681    -0.475332
 H    -2.455027    -6.439888    -1.176356
 H    -3.809586    -7.895331     0.522910
 O    -4.027811    -7.702936     1.437820
 H    -3.829305    -6.743958     1.561781
 H    -2.767633    -5.185735     0.857480
 O    -3.469806    -5.124276     1.525534
 H    -3.187937    -4.443189     2.169333
 H     4.629326    -6.610110     4.348071
 O     4.023860    -6.293149     3.626715
 H     4.580280    -6.160183     2.842351
 H    -9.543702    -6.102677    -4.152053
 O    -9.584347    -5.587320    -4.990323
 H    -10.225272    -6.035515    -5.542551
 H     6.338955    -5.545383     0.714084
 O     5.875218    -6.188341     1.292772
 H     5.484769    -6.793295     0.643073
 H    -1.210522    -6.901253     2.117722
 O    -1.335155    -7.865181     2.110978
 H    -2.292945    -8.006121     2.114421
 H    -10.103112    -3.914667    -4.580369
 O    -10.245321    -3.011182    -4.251146
 H    -10.037767    -2.408078    -4.977788
 H     0.212205     8.188957    -2.758327
 O     0.508192     9.054668    -3.109719
 H     1.412784     9.190496    -2.758622
 H    -9.017750    -7.930698    -2.896102
 O    -9.621328    -7.188568    -2.837589
 H    -9.494137    -6.809301    -1.949136
 H     2.125582     0.421476     4.543904
 O     2.247485    -0.455439     4.954645
 H     2.459730    -1.086200     4.233786
 H    -6.729066     0.776590    -7.459518
 O    -7.687038     0.834404    -7.310118
 H    -7.854112     1.712562    -6.965614
 H     5.991339     4.514784    -7.148782
 O     5.417297     4.390543    -6.392966
 H     4.556739     4.849616    -6.641009
 H    -5.559526     10.136187     1.389100
 O    -5.084355     10.221088     0.551692
 H    -5.671702     9.766710    -0.084078
 H    -0.916821    -0.731142    -5.826812
 O    -1.106556    -0.034055    -6.491880
 H    -0.332510     0.556402    -6.415154
 H     4.594788     0.135814    -7.064141
 O     4.700853    -0.808242    -6.904941
 H     5.557492    -0.920824    -6.456291
 H     2.625560    -8.571647    -3.265299
 O     3.580929    -8.482940    -3.276658
 H     3.781371    -7.844089    -3.976595
 H    -4.400588     0.011274    -7.839704
 O    -4.918421     0.731120    -7.448097
 H    -4.246131     1.364664    -7.107935
 H     1.362366     3.350561     6.854840
 O     2.124072     2.759528     7.013364
 H     2.924206     3.307108     6.910977
 H    -11.309835    -2.847471     0.013965
 O    -10.895042    -2.242734     0.629442
 H    -10.179780    -1.804150     0.135653
 H    -7.340697     1.380656     7.819782
 O    -7.832051     2.214479     7.799569
 H    -7.940377     2.491305     8.708908
 H     6.319617    -8.797556    -1.870643
 O     6.389754    -8.856195    -2.828495
 H     5.503327    -9.077256    -3.140766
 H     6.456446     5.438089    -0.583481
 O     7.103940     4.806850    -0.914108
 H     7.319643     4.228224    -0.154403
 H    -5.226256    -3.301769     5.717529
 O    -5.244482    -2.580227     6.384556
 H    -4.599117    -2.864170     7.054938
 H     2.691188     1.083031     7.487373
 O     3.174975     0.258131     7.338639
 H     2.845708    -0.081053     6.479554
 H    -2.542896    -3.320692     6.880097
 O    -3.011839    -3.517012     7.719851
 H    -2.384526    -3.219171     8.394634
 H     5.830033     1.757335     6.664882
 O     5.558098     0.895152     6.345286
 H     4.682182     0.700842     6.740528
 H     1.785822    -4.196616     3.940778
 O     2.466426    -4.373544     4.605302
 H     3.009355    -5.114698     4.210632
 H     10.420843    -2.351565    -2.168573
 O     10.934274    -2.404206    -1.316784
 H     11.858162    -2.342804    -1.553143
 H     3.633262     8.556539    -2.426827
 O     2.949782     9.092134    -2.005425
 H     2.798840     8.681769    -1.134313
 H    -8.047078    -6.618627     0.088172
 O    -8.713111    -6.173805    -0.460858
 H    -8.673125    -5.242461    -0.132067
 H    -1.013216     9.873732    -2.634559
 O    -1.950463     10.006024    -2.396403
 H    -2.001436     10.062809    -1.439772
 H     3.942862     4.358629    -3.582702
 O     3.375120     5.134327    -3.546954
 H     3.924894     5.905667    -3.296683
 H     4.974517     6.839418    -1.636545
 O     4.883131     7.107676    -2.571624
 H     5.663486     6.795340    -3.047415
 H    -0.405876     4.809790     6.403298
 O     0.315415     4.375881     5.925961
 H     0.988353     5.050324     5.666721
 H     3.152847     5.324721     5.429180
 O     2.373924     5.774712     5.069576
 H     2.310970     5.500876     4.140778
 H    -7.389238     8.849298     0.516679
 O    -7.110997     8.688756    -0.394601
 H    -6.859395     7.749065    -0.430548
 H    -1.158256    -5.247624     3.264475
 O    -0.731839    -5.087307     2.392568
 H     0.193798    -5.342678     2.448099
 H     4.371687    -2.408654     6.006720
 O     4.369288    -2.513839     5.028579
 H     3.621510    -3.141011     4.844253
 H     7.343226    -6.266225     2.750629
 O     7.748449    -5.877538     3.543200
 H     7.191785    -5.083224     3.722672
 H     9.278874    -4.747200     3.465638
 O     9.910082    -4.007823     3.340829
 H     9.654273    -3.356023     4.012356
 H     2.719185     8.521468    -7.590951
 O     2.748765     7.935667    -6.835916
 H     1.881939     8.039829    -6.373157
 H    -0.442477    -1.806485     8.010422
 O    -0.622796    -2.488805     8.672256
 H     0.098914    -3.118762     8.590201
 H     8.202708     4.828674    -2.128169
 O     8.865963     4.913359    -2.860985
 H     9.586522     5.419756    -2.485916
 H     6.163872     5.171449    -4.979874
 O     6.493925     5.521510    -4.131287
 H     7.445392     5.378359    -4.071950
 H     10.498040     2.675885    -4.227136
 O     9.776776     2.513897    -3.621019
 H     9.380938     3.385038    -3.394045
 H     3.316394    -2.820118     7.651849
 O     4.140800    -2.295006     7.680118
 H     3.846235    -1.381552     7.816059
 H    -2.569027    -1.438389    -8.851239
 O    -2.969947    -1.166106    -8.026756
 H    -2.265142    -0.729643    -7.501006
 H     4.993180     5.424980     1.781921
 O     4.813275     4.818133     2.511054
 H     3.845617     4.816484     2.628884
 H    -3.736245    -6.043467    -5.151611
 O    -2.941170    -5.509447    -5.214613
 H    -3.197074    -4.705981    -5.694735
 H    -6.622771     5.732245     5.419076
 O    -6.209358     6.582165     5.179454
 H    -6.094027     6.562581     4.203485
 H    -7.450991     3.610068     6.522342
 O    -7.215689     4.096416     5.722219
 H    -6.966627     3.413469     5.078517
 H    -7.432619     9.192670     3.178002
 O    -7.214463     9.642615     2.336165
 H    -7.700928     10.467646     2.347015
 H    -5.808505    -7.137906     1.367649
 O    -6.443352    -6.496913     1.011222
 H    -5.928847    -6.000664     0.339054
 H    -3.550892    -5.224274     7.384068
 O    -3.776039    -6.045531     6.911136
 H    -2.989725    -6.269527     6.399808
 H     9.493342     1.097047    -0.683336
 O     9.520116     2.063363    -0.807902
 H     9.808702     2.194659    -1.717146
 H    -7.831249    -4.543163     3.135105
 O    -6.900256    -4.786388     3.104768
 H    -6.773269    -5.377831     2.335313
 H     1.218463    -2.670246     6.728338
 O     1.737853    -3.421413     7.035021
 H     1.953788    -3.934001     6.237744
 H    -3.536034    -2.498887    -6.933387
 O    -3.924269    -3.171955    -6.355224
 H    -4.876820    -3.056283    -6.410753
 H    -8.815834     7.957650     4.540504
 O    -8.034526     8.499349     4.661233
 H    -7.337175     7.896467     4.995218
 H     7.933384    -1.581157    -5.449209
 O     7.003542    -1.348437    -5.439938
 H     6.560631    -2.034377    -4.905178
 H    -4.697571    -5.339996     5.555041
 O    -4.771642    -4.709547     4.812083
 H    -5.539621    -4.941879     4.270469
 N     5.801195    -6.985266     5.657578
 H     5.748771    -6.335276     6.436445
 H     6.692543    -6.826630     5.185121
 H     5.812436    -7.921859     6.048292
