604
grain_mol69 // -1788.467069770668 // -55.215257283 // -820.897556623668 // -1022.78477043 // -0.0562397457 // -0.583911434578 // -0.015949503256
 H    -1.800607    -0.007111     2.405199
 O    -0.824737     0.033446     2.501794
 H    -0.547141    -0.838475     2.870312
 H    -0.295537    -1.996575    -2.822810
 O    -0.388958    -1.974806    -1.857868
 H    -1.341358    -1.883986    -1.687462
 H    -2.746022     1.811669     0.682838
 O    -2.627072     1.139483    -0.009827
 H    -1.834290     1.411341    -0.506740
 H    -3.659026     1.739345    -3.205882
 O    -3.132085     2.056934    -3.976155
 H    -2.236644     2.213367    -3.658579
 H    -0.054379    -0.678566    -0.809023
 O     0.051625     0.079798    -0.202707
 H    -0.391533    -0.174713     0.617290
 H     1.098086    -2.128798    -4.717907
 O     0.158629    -2.312737    -4.552710
 H     0.075544    -3.278199    -4.547887
 H    -4.902795     2.273847    -1.510109
 O    -4.520571     1.436326    -1.837068
 H    -3.855594     1.195697    -1.148631
 H    -3.600444     3.419526     2.240085
 O    -2.868960     2.801070     2.050142
 H    -2.115408     3.167382     2.548886
 H     2.644406     0.147552    -2.928468
 O     2.036734    -0.473555    -2.477427
 H     1.135110    -0.181832    -2.713543
 H    -1.035035     0.140681    -3.662975
 O    -0.239273     0.639958    -3.384990
 H    -0.508254     1.266636    -2.693065
 H     2.697572    -0.545873     0.615552
 O     2.624899    -1.320044     0.019767
 H     2.375084    -0.977904    -0.859757
 H    -2.801948    -0.539087    -0.663069
 O    -2.916452    -1.040832    -1.481209
 H    -3.717483    -1.589351    -1.397287
 H     2.857186     1.229409    -0.829177
 O     2.030827     1.738758    -0.754056
 H     1.317909     1.092792    -0.564318
 H     0.639519     3.030604    -3.392018
 O     1.554392     2.864709    -3.129132
 H     1.543299     2.443348    -2.250428
 H     0.201711    -4.028338    -0.406051
 O    -0.010196    -4.746878    -1.043940
 H    -0.797760    -5.189405    -0.652755
 H    -6.284419     2.184739     2.784010
 O    -6.381077     2.431945     3.742347
 H    -7.133682     1.885385     4.050467
 H     1.174812    -3.668312     1.454178
 O     0.768249    -3.052761     0.817135
 H     1.447570    -2.399721     0.551888
 H    -2.887885     5.132305    -1.315464
 O    -2.711909     4.359817    -0.746157
 H    -3.600084     3.993972    -0.554134
 H    -5.500542    -1.263124     1.591092
 O    -5.219324    -0.654873     0.875101
 H    -5.304710    -1.151693     0.055839
 H    -0.347740    -3.087146     3.137752
 O    -0.055438    -2.254267     3.545223
 H     0.892307    -2.155143     3.356585
 H     5.294764     1.006055    -1.130316
 O     4.510021     0.477389    -0.926779
 H     4.724116     0.106023    -0.041533
 H     0.721635     2.431158     0.929723
 O     0.699989     2.129745     1.847133
 H     0.092168     1.371549     1.917293
 H     4.533660    -0.581150    -2.241935
 O     4.755922    -1.103155    -3.046301
 H     5.244001    -0.479513    -3.623547
 H     3.075903     3.222067    -1.105787
 O     3.951092     3.631120    -1.084295
 H     4.453816     3.307542    -1.856057
 H    -5.792715    -1.650217    -1.987167
 O    -5.268053    -2.325087    -1.504128
 H    -5.162501    -3.069739    -2.121225
 H    -4.876891    -4.065500     1.284908
 O    -5.563361    -3.453184     0.959874
 H    -5.316024    -3.208579     0.057924
 H     2.805950     1.989842    -3.728184
 O     3.488766     1.306396    -3.888903
 H     3.580469     1.227278    -4.844016
 H    -5.213079     3.976756     3.425666
 O    -4.654855     4.543443     2.880534
 H    -4.147126     5.127451     3.512298
 H     0.765424     0.782731    -4.785556
 O     1.274671     0.632933    -5.608630
 H     1.882169    -0.107422    -5.402667
 H     1.068845     5.672947    -2.548911
 O     1.854320     5.373417    -2.059984
 H     2.425111     4.901080    -2.697772
 H    -2.692423    -3.598865    -1.726151
 O    -2.859131    -3.810219    -0.791898
 H    -3.619570    -4.407150    -0.752490
 H     2.173447     4.960685    -4.747950
 O     1.306726     5.023491    -5.185596
 H     1.314680     4.296570    -5.836880
 H     7.805390     1.846648    -0.855406
 O     7.030007     1.458711    -1.300910
 H     7.407892     0.751273    -1.861719
 H     4.507752     2.810472     0.282198
 O     4.826800     2.492650     1.151197
 H     4.735316     3.268237     1.743106
 H     1.167399    -3.281332    -2.051097
 O     2.033363    -3.140086    -2.460981
 H     2.114029    -2.165765    -2.533485
 H     1.195626     4.565530    -0.802566
 O     0.725904     4.122501    -0.060281
 H     0.036419     4.740650     0.242982
 H    -5.742212     0.980270     1.051042
 O    -6.238718     1.809663     1.201149
 H    -7.162673     1.555099     0.950798
 H    -2.227600    -2.671757     0.292431
 O    -1.768718    -2.069695     0.909152
 H    -0.857124    -2.404278     0.939861
 H    -3.732418    -0.215382     4.174912
 O    -3.748744    -0.310953     5.154888
 H    -4.499649    -0.892885     5.412271
 H    -6.074609    -2.812357     3.179085
 O    -5.640232    -1.945506     3.241465
 H    -4.685447    -2.162457     3.266040
 H    -2.759886    -0.582218    -3.073270
 O    -2.477452    -0.686329    -4.009367
 H    -2.310691    -1.654622    -4.040884
 H    -3.304400    -3.610804    -3.679042
 O    -2.452598    -3.211919    -3.434390
 H    -1.750277    -3.852810    -3.661386
 H     3.352537    -1.341283    -4.182457
 O     2.818140    -1.502016    -4.983617
 H     3.467362    -1.693361    -5.679608
 H     4.829850     2.071299    -6.649927
 O     4.306402     1.243956    -6.639269
 H     3.475807     1.453919    -7.074193
 H    -4.251730     1.119506     5.710498
 O    -4.767595     1.946822     5.899681
 H    -5.267971     2.062036     5.057697
 H    -3.956532    -0.075541     1.889840
 O    -3.437636     0.276130     2.633291
 H    -3.358399     1.244374     2.508186
 H    -5.721656     0.400612    -2.422224
 O    -6.249329    -0.288287    -2.876838
 H    -5.802900    -0.417040    -3.736069
 H     2.039747    -4.001316    -3.965121
 O     2.004679    -4.497098    -4.806614
 H     1.605129    -5.353873    -4.585072
 H     4.548751    -3.575551    -0.449449
 O     4.810129    -2.798837     0.092641
 H     4.042219    -2.181600     0.048430
 H    -0.216787     2.952725    -1.061085
 O    -0.951356     2.549367    -1.553685
 H    -1.673881     3.205369    -1.464931
 H     1.729609     4.443197     1.382245
 O     2.167456     4.616145     2.235500
 H     1.970201     3.849585     2.796261
 H     3.693492     1.248007     1.632709
 O     2.924963     0.668187     1.799025
 H     2.144639     1.249777     1.887166
 H     3.251958    -4.042341    -1.893185
 O     3.951293    -4.649351    -1.546748
 H     4.644260    -4.671641    -2.225145
 H     5.130325    -3.944140    -4.309169
 O     5.539858    -3.594402    -3.480264
 H     5.124252    -2.730437    -3.282519
 H    -1.125843     5.100776     1.854500
 O    -1.290353     5.618798     1.031634
 H    -1.911661     5.094046     0.464910
 H    -5.686797     3.117369     0.204429
 O    -5.228312     3.591709    -0.514814
 H    -5.680277     4.438618    -0.709457
 H     5.024272    -3.721212     3.133597
 O     4.281884    -3.572465     2.541982
 H     4.629837    -3.316458     1.658257
 H     5.856799    -1.214007     1.468923
 O     5.450804    -0.326435     1.415199
 H     6.228504     0.263632     1.455791
 H     1.757908    -6.813367    -2.788354
 O     1.597538    -7.069501    -3.722226
 H     2.481149    -7.152109    -4.110039
 H    -7.155737    -3.679789     0.740679
 O    -8.119394    -3.691284     0.520130
 H    -8.597677    -3.471426     1.348821
 H     3.228802    -2.315285     2.917697
 O     2.533888    -1.646323     3.064814
 H     2.760049    -0.858500     2.538000
 H    -1.922224     2.774135     4.925315
 O    -2.642730     3.434298     5.008128
 H    -3.374758     2.923839     5.406242
 H    -0.853311     1.008787     3.894010
 O    -0.752194     1.584091     4.685828
 H     0.074084     2.060178     4.550171
 H     0.413514     3.146180    -7.086683
 O     1.367081     2.961323    -6.938975
 H     1.380494     2.130436    -6.426961
 H     7.109075    -2.628060     4.913080
 O     6.367572    -3.103344     4.467721
 H     5.549584    -2.740075     4.883287
 H     7.984937     1.586124     1.455631
 O     7.903132     0.668847     1.778496
 H     8.407297     0.094136     1.173008
 H    -3.952711    -0.738616    -4.756187
 O    -4.874157    -0.800948    -5.107997
 H    -4.846660    -0.461837    -6.023625
 H     6.531976    -1.462300    -2.030879
 O     6.931430    -1.890812    -1.268970
 H     6.191929    -2.148316    -0.686381
 H     4.653937    -0.637603     4.514205
 O     5.069680     0.090743     4.023094
 H     5.036987    -0.111813     3.064099
 H    -0.067039     3.392748     2.714922
 O    -0.707958     4.056897     3.036913
 H    -0.425472     4.352352     3.924022
 H     8.298339    -1.186729    -0.552722
 O     9.073736    -0.787145    -0.100122
 H     9.779829    -1.446816    -0.137465
 H     9.631803    -3.645336     2.431701
 O     9.352477    -3.496536     1.502227
 H     10.127584    -3.345876     0.950266
 H    -2.420246    -2.494294     3.860069
 O    -3.028991    -2.614994     3.121497
 H    -2.559397    -2.315825     2.302269
 H    -2.007312     0.487188    -6.382110
 O    -2.641471     1.226591    -6.463256
 H    -2.913976     1.443993    -5.547468
 H    -1.120654     3.589266    -5.714501
 O    -1.222957     3.514879    -6.691914
 H    -1.803592     2.743004    -6.816672
 H    -4.488829    -6.344811    -1.037159
 O    -4.975995    -5.587353    -0.679600
 H    -5.733847    -5.443151    -1.286247
 H     2.792290    -5.836813    -1.260454
 O     1.990653    -6.390477    -1.169482
 H     1.218732    -5.764514    -1.096535
 H     3.471948    -4.457034    -5.449858
 O     4.437229    -4.450755    -5.697591
 H     4.556398    -3.736523    -6.329432
 H     7.442929     3.595055     2.018719
 O     7.381057     3.201594     1.139069
 H     6.454825     2.860346     1.082227
 H     6.694777    -3.791544     0.571482
 O     7.194178    -4.605554     0.391515
 H     8.072717    -4.420474     0.778196
 H    -7.371911    -4.609504    -2.474427
 O    -7.138773    -5.527406    -2.211265
 H    -7.771196    -5.777308    -1.510759
 H    -4.441786     6.896882     4.545922
 O    -3.564173     6.546876     4.298233
 H    -3.080356     6.315193     5.139871
 H     7.173860     3.793656     4.776409
 O     7.194188     3.357652     3.914402
 H     7.452650     2.433545     4.093399
 H    -5.953135     1.022196     6.752686
 O    -6.747816     0.519362     7.065509
 H    -6.478054    -0.415906     6.994044
 H    -0.333940    -4.992880    -2.761817
 O    -0.483080    -4.936181    -3.723206
 H    -1.064882    -5.663423    -3.979371
 H     6.658149     0.464667     4.403834
 O     7.627145     0.663591     4.371701
 H     7.859650     0.585462     3.419544
 H     4.981795    -6.742719    -3.560707
 O     4.303524    -6.954192    -4.237927
 H     4.436019    -6.312413    -4.943544
 H    -5.754999    -2.164299    -5.324201
 O    -6.361413    -2.938392    -5.416854
 H    -7.212532    -2.537843    -5.731986
 H    -7.763806     0.768119     5.791769
 O    -8.304132     1.081872     5.022951
 H    -8.935012     1.709221     5.379379
 H    -5.291115     5.758690     1.913130
 O    -5.534716     6.657938     1.613232
 H    -4.681159     7.139792     1.589662
 H     5.875681     1.490278    -3.996676
 O     6.131558     0.688352    -4.502719
 H     5.654391     0.742511    -5.333159
 H    -5.898628     6.390341    -0.039377
 O    -5.905808     6.125207    -0.982900
 H    -5.012392     6.357674    -1.314076
 H    -0.096134    -7.583877    -2.889575
 O    -0.807991    -7.689542    -2.247775
 H    -0.422965    -7.998706    -1.419323
 H    -2.587494    -1.418772     5.488546
 O    -1.933001    -2.133415     5.671253
 H    -1.106663    -1.651558     5.866879
 H     7.628194    -4.488089    -1.264990
 O     7.764878    -4.516173    -2.236315
 H     6.994415    -4.059132    -2.615711
 H    -8.697549    -3.165579    -3.378034
 O    -7.784056    -3.060931    -3.025825
 H    -7.225578    -2.897739    -3.801202
 H     8.947503    -3.337993    -2.645684
 O     9.576102    -2.615854    -2.857287
 H     9.065773    -1.787756    -2.804957
 H    -4.934520    -5.169268    -3.523511
 O    -4.910455    -4.201470    -3.432911
 H    -5.419954    -3.843265    -4.170246
 H    -3.590117     3.813441    -3.802282
 O    -3.315121     4.684076    -3.471898
 H    -3.596910     5.354911    -4.095020
 H    -0.181742     4.560206    -4.283654
 O    -0.835426     3.870068    -4.072189
 H    -1.630302     4.321877    -3.723665
 H    -1.978585    -3.904143     5.437900
 O    -2.257101    -4.781130     5.130825
 H    -3.186230    -4.656000     4.869929
 H    -2.382107     8.185329    -4.177305
 O    -2.575229     7.228057    -4.248180
 H    -2.355755     6.956024    -5.166440
 H    -3.089465     7.390061     2.823680
 O    -2.999315     7.548809     1.866967
 H    -2.386925     6.849742     1.560091
 H     4.742366     1.756382     4.168270
 O     4.580758     2.701450     3.957533
 H     5.455669     3.062209     3.719938
 H     7.804563    -1.444953     6.419475
 O     8.264333    -1.673889     5.588107
 H     8.222427    -0.847078     5.067955
 H     5.917120    -1.152512     7.887164
 O     6.624174    -0.639549     7.483424
 H     6.166707     0.089807     7.008184
 H    -1.636065     5.344992    -6.766718
 O    -1.784090     6.291247    -6.615970
 H    -0.915888     6.721510    -6.713644
 H    -8.234725    -0.139238     3.755059
 O    -8.030068    -0.706271     2.998726
 H    -7.123888    -1.038928     3.130235
 H    -8.490109     0.033983    -0.012726
 O    -8.541066     0.702090     0.690927
 H    -8.523718     0.189862     1.517159
 H     0.758398    -0.319382     5.897841
 O    -0.084062    -0.383224     6.405764
 H    -0.586008     0.373974     6.056567
 H    -0.470684     6.911943    -2.001664
 O    -0.407312     6.490071    -2.882250
 H    -1.255576     6.661115    -3.349848
 H     0.682440    -8.009974     0.885861
 O    -0.216678    -8.276355     0.640146
 H    -0.683809    -8.307742     1.503132
 H     1.915941     2.883301     5.119243
 O     1.947028     2.561221     4.192722
 H     2.892324     2.584530     3.957419
 H    -7.786509    -5.831772    -5.472589
 O    -6.885011    -5.694659    -5.807144
 H    -6.741770    -4.739297    -5.790502
 H     3.128017    -7.518682     1.393311
 O     2.238798    -7.164068     1.316248
 H     2.170786    -6.869429     0.371673
 H     3.441429     5.384594    -7.629096
 O     3.605751     4.420451    -7.706620
 H     2.776695     3.972062    -7.478486
 H    -0.564447     6.966448     0.165721
 O    -0.254523     7.649038    -0.453296
 H    -0.937071     8.335189    -0.442469
 H     4.328143     3.891108     5.103814
 O     4.222835     4.569186     5.813779
 H     5.096344     4.655709     6.204513
 H     7.513992     3.140394     6.782043
 O     6.979783     3.969505     6.659873
 H     7.449616     4.655354     7.132970
 H     4.178847    -8.022463    -0.655718
 O     4.680524    -7.456847    -0.045952
 H     5.128097    -6.831325    -0.638535
 H     6.852823    -6.009142    -2.345149
 O     6.089477    -6.613369    -2.285191
 H     6.434552    -7.517274    -2.171965
 H    -9.004076    -2.108843     2.876473
 O    -9.477567    -2.941406     2.667571
 H    -10.205202    -2.668360     2.083099
 H    -2.750773     8.728477     0.537613
 O    -2.595495     9.049549    -0.366953
 H    -3.393393     9.595189    -0.574711
 H     7.974338     1.020577     7.428277
 O     8.321288     1.695596     6.834914
 H     8.192504     1.329596     5.942790
 H    -3.014676     5.543507     7.075326
 O    -2.284547     5.603898     6.420897
 H    -2.350938     4.710563     5.967718
 H    -6.145966    -6.627650    -3.207519
 O    -5.463047    -6.845461    -3.867813
 H    -5.890697    -6.599907    -4.716583
 H     6.785645    -2.630713     2.883833
 O     6.923935    -2.410277     1.943685
 H     7.875107    -2.484521     1.778119
 H     2.306656     6.663337    -1.118323
 O     2.543714     7.431024    -0.551147
 H     1.690818     7.772761    -0.255475
 H    -4.044119    -7.526472    -2.682740
 O    -3.496759    -7.531865    -1.889086
 H    -2.579634    -7.657888    -2.192347
 H     0.950884     6.445128    -5.939878
 O     0.778632     7.296303    -6.405793
 H     0.775764     7.960591    -5.685819
 H    -8.204967    -1.805582    -1.786726
 O    -8.516609    -1.502801    -0.919597
 H    -8.289475    -2.264670    -0.340228
 H    -3.268817     6.962304    -2.595043
 O    -3.384373     6.822301    -1.645594
 H    -3.097159     7.647123    -1.199995
 H     2.839936    -4.457350     2.527311
 O     1.927883    -4.808884     2.530892
 H     2.000951    -5.715175     2.166845
 H    -8.699077    -1.075178    -5.191935
 O    -8.590392    -1.685220    -5.958449
 H    -8.296555    -1.114298    -6.690227
 H     7.636913    -0.165163    -3.804426
 O     8.268500    -0.165133    -3.066625
 H     8.939467     0.498303    -3.281227
 H     4.183557     6.681931    -0.334604
 O     4.901481     6.046411    -0.486569
 H     4.454290     5.195187    -0.690630
 H    -7.871160    -0.082179    -3.399542
 O    -8.761135    -0.091645    -3.808836
 H    -9.375260    -0.301960    -3.104033
 H     6.172876     3.689638    -3.370090
 O     5.698925     2.913863    -3.017497
 H     6.276873     2.525140    -2.318756
 H    -1.253059    -6.946185     0.334716
 O    -1.871441    -6.219019     0.117292
 H    -2.449011    -6.559295    -0.572841
 H    -3.885779    -7.808555     1.220896
 O    -4.132853    -7.515846     2.101220
 H    -3.927146    -6.550809     2.127524
 H    -2.820035    -5.087803     1.299222
 O    -3.544877    -4.947880     1.930090
 H    -3.278254    -4.202513     2.505628
 H     5.243242    -5.965894     5.134033
 O     4.497030    -5.754172     4.569963
 H     4.811893    -5.881865     3.659393
 H    -9.415510    -6.480754    -3.838830
 O    -9.417669    -6.059256    -4.728878
 H    -10.043437    -6.558766    -5.253800
 H     6.327081    -5.577680     1.526477
 O     5.807895    -6.146756     2.131378
 H     5.369828    -6.768102     1.537743
 H    -1.335776    -6.670802     2.797182
 O    -1.470379    -7.628987     2.891027
 H    -2.429348    -7.761429     2.872024
 H    -9.928240    -4.347054    -4.523108
 O    -10.069832    -3.411745    -4.299370
 H    -9.827295    -2.893454    -5.078731
 H     0.478655     7.782314    -3.629584
 O     0.799742     8.601210    -4.061884
 H     1.692231     8.765981    -3.692602
 H    -8.962130    -8.166217    -2.372333
 O    -9.556731    -7.415987    -2.418017
 H    -9.457879    -6.943801    -1.571538
 H     2.009395     0.841999     4.543905
 O     2.103989     0.011915     5.049204
 H     2.334369    -0.693903     4.409046
 H    -6.384400    -0.031176    -7.762355
 O    -7.346346     0.051815    -7.656682
 H    -7.513916     0.964130    -7.417191
 H     6.366514     3.595193    -7.368520
 O     5.762827     3.559079    -6.626577
 H     4.918690     3.997096    -6.955901
 H    -5.416114     10.225818     0.054643
 O    -4.910034     10.214963    -0.768679
 H    -5.478949     9.699177    -1.373285
 H    -0.658606    -1.407699    -5.752330
 O    -0.813536    -0.785864    -6.496210
 H    -0.034901    -0.197847    -6.454085
 H     4.906927    -0.734649    -6.863003
 O     4.993843    -1.656576    -6.597721
 H     5.831754    -1.727622    -6.107173
 H     2.675897    -8.957035    -2.222884
 O     3.631876    -8.877280    -2.203171
 H     3.869151    -8.322097    -2.960672
 H    -4.054187    -0.855878    -7.966944
 O    -4.576388    -0.092866    -7.675765
 H    -3.908593     0.567665    -7.380970
 H     1.195839     4.005922     6.496574
 O     1.948467     3.430301     6.734711
 H     2.755729     3.962205     6.610088
 H    -11.290838    -2.773262    -0.121216
 O    -10.890216    -2.109373     0.440345
 H    -10.151233    -1.734572    -0.070882
 H    -7.902509     2.044996     7.534631
 O    -8.432820     2.841528     7.342773
 H    -8.672025     3.204656     8.201911
 H     6.315018    -9.066349    -0.668229
 O     6.417373    -9.226607    -1.611394
 H     5.540511    -9.474539    -1.930193
 H     6.598865     5.224568    -0.929419
 O     7.248984     4.554251    -1.164145
 H     7.428430     4.060652    -0.337890
 H    -5.431036    -2.663584     5.827598
 O    -5.465693    -1.873939     6.412082
 H    -4.847381    -2.088340     7.132275
 H     2.473914     1.815164     7.415807
 O     2.950707     0.973575     7.376791
 H     2.649456     0.546933     6.547305
 H    -2.793854    -2.579237     7.088310
 O    -3.297336    -2.677726     7.925292
 H    -2.690407    -2.315674     8.587500
 H     5.651241     2.363440     6.646218
 O     5.377238     1.475169     6.410807
 H     4.485390     1.334753     6.792964
 H     1.963207    -4.173801     4.323424
 O     2.428624    -4.068739     5.165732
 H     3.134791    -4.737642     5.127029
 H     10.512023    -2.730193    -1.503046
 O     10.991067    -2.694857    -0.630920
 H     11.924214    -2.668139    -0.835424
 H     3.889833     8.150588    -3.207997
 O     3.198338     8.735449    -2.874347
 H     3.009201     8.424289    -1.970181
 H    -8.085379    -6.546034     0.487602
 O    -8.724197    -6.157283    -0.131739
 H    -8.683546    -5.196061     0.094851
 H    -0.727045     9.482211    -3.737206
 O    -1.670714     9.648523    -3.551600
 H    -1.756928     9.809637    -2.609446
 H     4.184676     3.848959    -3.888437
 O     3.626558     4.629157    -3.959526
 H     4.176914     5.418020    -3.772876
 H     5.176106     6.517215    -2.184758
 O     5.123774     6.682124    -3.146501
 H     5.917498     6.312772    -3.554402
 H    -0.535046     5.415805     5.830616
 O     0.193173     4.935314     5.417801
 H     0.882072     5.575506     5.118202
 H     3.067921     5.800067     4.930518
 O     2.308245     6.213956     4.494775
 H     2.277596     5.842119     3.599220
 H    -7.229165     8.870094    -0.742158
 O    -6.922362     8.606378    -1.619635
 H    -6.680419     7.666777    -1.541815
 H    -1.305921    -4.901123     3.757794
 O    -0.843238    -4.846624     2.890756
 H     0.075990    -5.096867     3.016228
 H     4.154583    -1.839974     6.388857
 O     4.174981    -2.039078     5.428106
 H     3.469988    -2.700088     5.272156
 H     7.127476    -5.970057     3.565028
 O     7.484773    -5.565330     4.365406
 H     7.000882    -4.724383     4.468875
 H     9.021435    -4.584369     4.280858
 O     9.650288    -3.855273     4.123007
 H     9.366115    -3.129841     4.692634
 H     3.169101     7.561477    -8.369197
 O     3.161986     7.060645    -7.554810
 H     2.280117     7.223362    -7.139797
 H    -0.714543    -0.971060     8.128115
 O    -0.932928    -1.577454     8.849897
 H    -0.215249    -2.216714     8.870278
 H     8.392930     4.433378    -2.329567
 O     9.084235     4.430885    -3.041100
 H     9.797131     4.968474    -2.695973
 H     6.467276     4.482588    -5.278736
 O     6.770028     4.919483    -4.460841
 H     7.716626     4.774919    -4.349606
 H     10.735417     2.042131    -4.091366
 O     9.989053     1.954138    -3.500568
 H     9.597562     2.848838    -3.384705
 H     3.040414    -2.051995     8.031676
 O     3.868376    -1.533432     8.025674
 H     3.581740    -0.607758     8.055050
 H    -2.206572    -2.424310    -8.743850
 O    -2.633897    -2.060864    -7.969282
 H    -1.943303    -1.575957    -7.467653
 H     5.048066     5.484235     1.365529
 O     4.833417     4.960506     2.147662
 H     3.862243     4.982026     2.229389
 H    -3.574332    -6.587394    -4.613823
 O    -2.770379    -6.070662    -4.702919
 H    -2.996984    -5.322243    -5.277527
 H    -6.701609     6.321339     4.536947
 O    -6.292752     7.134753     4.186544
 H    -6.130139     6.948359     3.230202
 H    -7.601540     4.171162     6.062254
 O    -7.087839     4.631260     5.375152
 H    -6.939940     3.945451     4.698037
 H    -7.366845     9.502792     1.861127
 O    -7.114630     9.853884     0.982864
 H    -7.585084     10.682708     0.887290
 H    -5.903478    -6.944325     1.901577
 O    -6.515096    -6.339322     1.453608
 H    -5.969264    -5.925166     0.751148
 H    -3.845246    -4.407149     7.757326
 O    -4.064920    -5.272131     7.366874
 H    -3.262843    -5.559750     6.915466
 H     9.577240     0.869401    -0.439379
 O     9.621166     1.815947    -0.667315
 H     9.945946     1.844689    -1.573371
 H    -7.954646    -4.153268     3.296413
 O    -7.026477    -4.406721     3.329149
 H    -6.878623    -5.079943     2.634156
 H     0.978368    -1.991182     7.007124
 O     1.477235    -2.709593     7.411212
 H     1.709864    -3.313303     6.688525
 H    -3.258629    -3.260604    -6.760574
 O    -3.677538    -3.862447    -6.127790
 H    -4.625627    -3.744512    -6.232839
 H    -8.819817     8.438711     3.288175
 O    -8.036519     8.981888     3.386347
 H    -7.360983     8.410267     3.808086
 H     8.159225    -2.296585    -4.943238
 O     7.232614    -2.056612    -4.995188
 H     6.761567    -2.675730    -4.406068
 H    -4.924391    -4.710929     5.908401
 O    -4.962902    -4.163848     5.099511
 H    -5.712390    -4.447314     4.556338
 N    -4.748756     5.005369     7.766191
 H    -5.205271     5.500515     8.526824
 H    -4.619520     4.046053     8.075895
 H    -5.410496     4.963857     6.991302
