604
grain_mol17 // -1931.17003215074 // -65.38153463 // -973.77433430074 // -1022.77723248 // -0.066201906 // -0.583381370829 // -0.019099694091
 H    -1.775287    -0.136329     2.497857
 O    -0.796533    -0.098014     2.557646
 H    -0.503955    -0.991374     2.856395
 H    -0.496555    -1.779955    -2.907327
 O    -0.548609    -1.820235    -1.939917
 H    -1.492804    -1.743278    -1.723394
 H    -2.791762     1.788419     0.940865
 O    -2.704087     1.164683     0.200572
 H    -1.931970     1.467677    -0.310663
 H    -3.869710     1.966829    -2.904907
 O    -3.375528     2.335174    -3.674389
 H    -2.467050     2.471036    -3.385722
 H    -0.168738    -0.594170    -0.823780
 O    -0.037921     0.124259    -0.175137
 H    -0.443952    -0.185031     0.645344
 H     0.815596    -1.786853    -4.864152
 O    -0.116294    -1.982581    -4.672081
 H    -0.200176    -2.946509    -4.725653
 H    -5.039721     2.388396    -1.126375
 O    -4.672459     1.574797    -1.523523
 H    -3.979963     1.290091    -0.880832
 H    -3.578960     3.289055     2.635565
 O    -2.855106     2.682773     2.386383
 H    -2.076300     3.024582     2.863002
 H     2.438523     0.372101    -2.998080
 O     1.849669    -0.278133    -2.563740
 H     0.939126     0.026591    -2.741858
 H    -1.268861     0.405525    -3.575215
 O    -0.461773     0.887983    -3.299952
 H    -0.700536     1.467077    -2.557399
 H     2.642458    -0.550693     0.488495
 O     2.541556    -1.284092    -0.153168
 H     2.256118    -0.885260    -0.996967
 H    -2.907301    -0.471568    -0.552282
 O    -3.057506    -0.916964    -1.396738
 H    -3.854275    -1.472144    -1.315059
 H     2.741436     1.315680    -0.842964
 O     1.919042     1.817653    -0.701715
 H     1.214583     1.159091    -0.523636
 H     0.418359     3.274651    -3.188775
 O     1.343509     3.094719    -2.975853
 H     1.369444     2.616370    -2.127050
 H     0.101438    -3.963259    -0.650271
 O    -0.138172    -4.639024    -1.324311
 H    -0.908735    -5.107580    -0.929455
 H    -6.248844     2.025501     3.183422
 O    -6.288146     2.207077     4.158931
 H    -7.026001     1.665000     4.501209
 H     1.152298    -3.722400     1.186506
 O     0.719854    -3.068156     0.607678
 H     1.388055    -2.397725     0.357582
 H    -3.015512     5.231091    -0.832599
 O    -2.816195     4.424850    -0.320613
 H    -3.696401     4.045450    -0.116778
 H    -5.509082    -1.343599     1.762305
 O    -5.257621    -0.690981     1.074353
 H    -5.378533    -1.134972     0.229672
 H    -0.296797    -3.253927     2.967382
 O     0.013784    -2.448601     3.414630
 H     0.952847    -2.336158     3.192557
 H     5.163473     1.116985    -1.259758
 O     4.387666     0.574276    -1.060888
 H     4.637087     0.143536    -0.210730
 H     0.682561     2.395151     1.076828
 O     0.696550     2.040311     1.974972
 H     0.095232     1.274797     2.023144
 H     4.354908    -0.396284    -2.439828
 O     4.542091    -0.864698    -3.285583
 H     5.005378    -0.204113    -3.841408
 H     2.949707     3.321598    -1.000388
 O     3.824298     3.732445    -0.990625
 H     4.294169     3.459079    -1.801349
 H    -5.952920    -1.498869    -1.818825
 O    -5.408126    -2.202310    -1.403701
 H    -5.330090    -2.905547    -2.071374
 H    -4.901050    -4.119199     1.248633
 O    -5.600336    -3.489117     0.992170
 H    -5.390645    -3.186218     0.098521
 H     2.567596     2.262569    -3.683110
 O     3.242884     1.592807    -3.916793
 H     3.292886     1.575136    -4.878057
 H    -5.158471     3.742882     3.915448
 O    -4.603058     4.345898     3.410098
 H    -4.067511     4.870536     4.042973
 H     0.482862     1.122508    -4.729212
 O     0.957083     1.027614    -5.580916
 H     1.571710     0.276293    -5.449224
 H     0.885291     5.857957    -2.195850
 O     1.690566     5.529491    -1.760691
 H     2.233465     5.099738    -2.450827
 H    -2.846175    -3.454471    -1.816240
 O    -2.973076    -3.725852    -0.891376
 H    -3.731549    -4.325706    -0.858066
 H     1.894974     5.291775    -4.480627
 O     1.010590     5.381488    -4.876210
 H     0.990048     4.698130    -5.572836
 H     7.684497     1.936080    -1.033431
 O     6.892598     1.584558    -1.477921
 H     7.243196     0.914025    -2.098414
 H     4.437960     2.825773     0.296732
 O     4.793598     2.451680     1.127866
 H     4.729187     3.184819     1.774494
 H     0.997148    -3.109549    -2.282776
 O     1.844583    -2.940169    -2.719897
 H     1.923102    -1.963062    -2.731453
 H     1.085917     4.640206    -0.532183
 O     0.647197     4.150142     0.199559
 H    -0.028030     4.746367     0.569940
 H    -5.773070     0.925475     1.371017
 O    -6.261909     1.744727     1.587756
 H    -7.197265     1.504141     1.365577
 H    -2.294928    -2.658932     0.237160
 O    -1.809425    -2.096385     0.870515
 H    -0.897922    -2.431496     0.841727
 H    -3.632292    -0.475045     4.325242
 O    -3.603245    -0.628168     5.297275
 H    -4.346136    -1.219433     5.556315
 H    -6.017126    -2.993253     3.268623
 O    -5.578710    -2.131643     3.365454
 H    -4.624241    -2.349251     3.338738
 H    -2.967749    -0.356850    -2.960932
 O    -2.725101    -0.399495    -3.912888
 H    -2.561003    -1.363513    -4.014079
 H    -3.540279    -3.340779    -3.737844
 O    -2.678358    -2.956796    -3.504924
 H    -1.987036    -3.580688    -3.802077
 H     3.091344    -1.031313    -4.374750
 O     2.523533    -1.140452    -5.161490
 H     3.142285    -1.285546    -5.895277
 H     4.465717     2.536480    -6.676593
 O     3.942787     1.709072    -6.697767
 H     3.094440     1.945186    -7.082103
 H    -4.115639     0.789458     5.876001
 O    -4.599506     1.604699     6.166179
 H    -5.181967     1.839135     5.415575
 H    -3.953763    -0.178285     2.067150
 O    -3.402349     0.123623     2.809089
 H    -3.329574     1.097618     2.747541
 H    -5.898633     0.576255    -2.122631
 O    -6.445448    -0.082706    -2.598364
 H    -6.035925    -0.154664    -3.482199
 H     1.786449    -3.702129    -4.274991
 O     1.715832    -4.142561    -5.144642
 H     1.324831    -5.012460    -4.962328
 H     4.442058    -3.501523    -0.849403
 O     4.727450    -2.760610    -0.271431
 H     3.959254    -2.142802    -0.240603
 H    -0.338116     3.044762    -0.833913
 O    -1.093616     2.673176    -1.319653
 H    -1.811079     3.320616    -1.158232
 H     1.711383     4.377477     1.616338
 O     2.182586     4.497080     2.460888
 H     2.011999     3.693543     2.977100
 H     3.680536     1.174426     1.577205
 O     2.916482     0.586915     1.736304
 H     2.143309     1.161393     1.896717
 H     3.085200    -3.875264    -2.264090
 O     3.797570    -4.503177    -1.988722
 H     4.461760    -4.479299    -2.695004
 H     4.859835    -3.616630    -4.745260
 O     5.306023    -3.319888    -3.914548
 H     4.898626    -2.472344    -3.642214
 H    -1.121404     4.996885     2.250776
 O    -1.322756     5.569079     1.473494
 H    -1.965724     5.080561     0.897696
 H    -5.750414     3.115464     0.666990
 O    -5.319124     3.639565    -0.034719
 H    -5.781340     4.494399    -0.156262
 H     5.071155    -3.872830     2.694349
 O     4.303457    -3.693069     2.144648
 H     4.613256    -3.378559     1.266069
 H     6.082612    -1.151980     1.225142
 O     5.515867    -0.337004     1.167069
 H     6.172658     0.372690     1.231234
 H     1.552117    -6.584975    -3.272061
 O     1.352332    -6.780391    -4.213068
 H     2.218647    -6.836099    -4.642357
 H    -7.201144    -3.703010     0.827632
 O    -8.173207    -3.701932     0.647663
 H    -8.615769    -3.536232     1.508464
 H     3.268555    -2.462970     2.646728
 O     2.580356    -1.806746     2.865235
 H     2.786497    -0.986061     2.382066
 H    -1.875371     2.536782     5.190884
 O    -2.595246     3.169327     5.371560
 H    -3.322239     2.648170     5.761861
 H    -0.780408     0.796606     4.014730
 O    -0.647227     1.329611     4.830482
 H     0.185373     1.793643     4.691013
 H     0.035881     3.629434    -6.855183
 O     0.994742     3.437289    -6.760254
 H     1.029093     2.574959    -6.304212
 H     7.238022    -2.976643     4.562711
 O     6.476995    -3.351037     4.028447
 H     5.676052    -3.001390     4.496224
 H     8.243784     1.607331     1.369069
 O     8.246924     0.680947     1.674934
 H     8.531578     0.136197     0.909665
 H    -4.230839    -0.406187    -4.598514
 O    -5.166365    -0.447179    -4.914341
 H    -5.177495    -0.049461    -5.806381
 H     6.359991    -1.284403    -2.369230
 O     6.792061    -1.757804    -1.653071
 H     6.077053    -2.058575    -1.060050
 H     4.760957    -0.890101     4.286346
 O     5.150921    -0.128935     3.826271
 H     5.081453    -0.273497     2.859219
 H    -0.031674     3.239229     2.951939
 O    -0.657911     3.878522     3.347406
 H    -0.330302     4.117863     4.235958
 H     8.143955    -1.070486    -0.954238
 O     8.943749    -0.722063    -0.494432
 H     9.649569    -1.376740    -0.657147
 H     9.719743    -4.071181     1.895154
 O     9.394234    -3.721748     1.021768
 H     10.151217    -3.584744     0.435600
 H    -2.336211    -2.714104     3.813670
 O    -2.975084    -2.788394     3.094670
 H    -2.540579    -2.434525     2.278113
 H    -2.355173     0.925943    -6.222348
 O    -2.991231     1.668138    -6.228540
 H    -3.224829     1.825074    -5.289909
 H    -1.438306     3.979819    -5.393401
 O    -1.581966     3.968912    -6.368368
 H    -2.168040     3.205585    -6.518160
 H    -4.614022    -6.242635    -1.231090
 O    -5.084495    -5.510453    -0.805188
 H    -5.867730    -5.328987    -1.367969
 H     2.650991    -5.707753    -1.729524
 O     1.853514    -6.267737    -1.640890
 H     1.086013    -5.649115    -1.494414
 H     3.154059    -4.058393    -5.845130
 O     4.108053    -4.033986    -6.132900
 H     4.200361    -3.280273    -6.721906
 H     7.442551     3.502674     1.959275
 O     7.340826     3.186279     1.052104
 H     6.416571     2.836532     1.014099
 H     6.633974    -3.774961     0.073135
 O     7.120909    -4.574437    -0.189753
 H     8.013934    -4.417339     0.175747
 H    -7.553881    -4.423369    -2.429082
 O    -7.310652    -5.355977    -2.236232
 H    -7.912790    -5.651680    -1.526790
 H    -4.384631     6.618030     5.175662
 O    -3.500232     6.298283     4.914928
 H    -2.997250     6.075833     5.713269
 H     7.297248     3.513574     4.723641
 O     7.281242     3.139237     3.833633
 H     7.538256     2.198720     3.940134
 H    -5.697455     0.668248     7.066581
 O    -6.455010     0.111088     7.360758
 H    -6.173445    -0.804243     7.196290
 H    -0.534828    -4.773803    -3.038891
 O    -0.724377    -4.655443    -3.987521
 H    -1.317390    -5.365551    -4.265197
 H     6.718332     0.275302     4.320065
 O     7.655536     0.569806     4.267439
 H     7.916674     0.376431     3.341956
 H     4.740371    -6.458473    -4.174579
 O     4.034224    -6.627133    -4.835000
 H     4.136770    -5.940335    -5.502160
 H    -6.057011    -1.795401    -5.180832
 O    -6.667330    -2.563003    -5.298086
 H    -7.530845    -2.144451    -5.549839
 H    -7.579929     0.424953     6.180735
 O    -8.161723     0.769468     5.456611
 H    -8.770894     1.380467     5.874411
 H    -5.281551     5.643442     2.528576
 O    -5.533520     6.559401     2.292054
 H    -4.681780     7.043077     2.267009
 H     5.622450     1.786753    -4.113204
 O     5.857462     1.020258    -4.680574
 H     5.344545     1.126313    -5.484314
 H    -5.971188     6.397480     0.645202
 O    -6.016869     6.195390    -0.312748
 H    -5.137459     6.450150    -0.663785
 H    -0.304799    -7.350866    -3.344087
 O    -0.989089    -7.499519    -2.681212
 H    -0.569783    -7.860478    -1.891218
 H    -2.433460    -1.749036     5.513145
 O    -1.770387    -2.471698     5.622073
 H    -0.937421    -2.000387     5.812873
 H     7.483223    -4.352209    -1.849085
 O     7.580679    -4.315822    -2.825520
 H     6.794344    -3.838504    -3.142325
 H    -8.915259    -2.926236    -3.180424
 O    -7.987390    -2.843168    -2.861656
 H    -7.462430    -2.628711    -3.647827
 H     8.743925    -3.115312    -3.207487
 O     9.365479    -2.379983    -3.395699
 H     8.857689    -1.558086    -3.270843
 H    -5.163852    -4.909268    -3.614642
 O    -5.134522    -3.949240    -3.463274
 H    -5.675013    -3.545092    -4.153261
 H    -3.823827     4.075078    -3.366720
 O    -3.534283     4.923348    -2.993181
 H    -3.842658     5.632030    -3.559188
 H    -0.438637     4.857851    -3.943830
 O    -1.083322     4.154299    -3.749845
 H    -1.862538     4.581078    -3.339816
 H    -1.829107    -4.222207     5.276289
 O    -2.120936    -5.077907     4.924576
 H    -3.060524    -4.937990     4.712956
 H    -2.629407     8.464475    -3.509820
 O    -2.825767     7.513373    -3.633958
 H    -2.646119     7.301570    -4.576462
 H    -3.037275     7.212486     3.460064
 O    -2.988348     7.431639     2.514402
 H    -2.391282     6.756428     2.132246
 H     4.838370     1.520653     4.090260
 O     4.668871     2.478344     3.951150
 H     5.535254     2.851801     3.700332
 H     8.119317    -1.884829     6.041980
 O     8.548617    -2.399750     5.329903
 H     9.017786    -1.749840     4.753597
 H     6.176400    -1.619111     7.551908
 O     6.863373    -1.074360     7.154673
 H     6.382937    -0.317499     6.749773
 H    -1.996630     5.799125    -6.306686
 O    -2.137029     6.733383    -6.088697
 H    -1.273388     7.170568    -6.195374
 H    -8.147731    -0.365824     4.109919
 O    -7.975941    -0.881490     3.309439
 H    -7.065763    -1.220877     3.381366
 H    -8.562876     0.046664     0.373990
 O    -8.583184     0.669172     1.119717
 H    -8.531300     0.106804     1.911358
 H     0.925686    -0.664647     5.849976
 O     0.105253    -0.760213     6.388432
 H    -0.412502     0.014727     6.109143
 H    -0.628808     7.056331    -1.504448
 O    -0.603009     6.692450    -2.412212
 H    -1.470167     6.891819    -2.831642
 H     0.632368    -8.019071     0.359447
 O    -0.276419    -8.271021     0.135018
 H    -0.706900    -8.358426     1.013170
 H     2.056691     2.578017     5.232378
 O     2.047625     2.319129     4.286626
 H     2.982793     2.357100     4.013800
 H    -8.096355    -5.449463    -5.479939
 O    -7.209855    -5.289211    -5.843120
 H    -7.065172    -4.336689    -5.770484
 H     3.097959    -7.557205     0.793520
 O     2.206458    -7.200435     0.776945
 H     2.098717    -6.845021    -0.142587
 H     3.040082     5.903711    -7.379408
 O     3.200219     4.946929    -7.526096
 H     2.381163     4.483133    -7.292542
 H    -0.630778     6.970173     0.664453
 O    -0.346363     7.692221     0.078990
 H    -1.027525     8.374756     0.162257
 H     4.466712     3.588274     5.180029
 O     4.390043     4.219406     5.936576
 H     5.279268     4.281517     6.295520
 H     7.721366     2.733359     6.667679
 O     7.179660     3.567120     6.629618
 H     7.672384     4.222082     7.122642
 H     4.060047    -7.925166    -1.327276
 O     4.588434    -7.400171    -0.703915
 H     5.010127    -6.735643    -1.272386
 H     6.662591    -5.801783    -2.993348
 O     5.901950    -6.409854    -2.941986
 H     6.250137    -7.318736    -2.901397
 H    -8.955123    -2.276257     3.138386
 O    -9.436853    -3.094578     2.894318
 H    -10.189604    -2.785196     2.362257
 H    -2.797636     8.701101     1.244724
 O    -2.680717     9.079175     0.357222
 H    -3.486758     9.635402     0.217973
 H     8.239037     0.625214     7.343345
 O     8.549086     1.302121     6.725342
 H     8.311586     0.922482     5.846895
 H    -2.297328     4.923562     7.811068
 O    -2.040092     5.164961     6.922381
 H    -2.235966     4.369283     6.342671
 H    -6.361963    -6.387175    -3.342759
 O    -5.707917    -6.560465    -4.044250
 H    -6.171082    -6.261236    -4.856358
 H     6.799829    -2.724523     2.528634
 O     6.937468    -2.508099     1.568282
 H     7.887991    -2.614077     1.397890
 H     2.183868     6.756094    -0.757513
 O     2.444915     7.486070    -0.152279
 H     1.605356     7.806383     0.200017
 H    -4.240615    -7.314319    -2.967034
 O    -3.660018    -7.370317    -2.199395
 H    -2.756681    -7.474515    -2.548743
 H     0.624361     6.848084    -5.521019
 O     0.433422     7.727380    -5.923124
 H     0.461494     8.343655    -5.162216
 H    -8.354264    -1.671907    -1.526871
 O    -8.628408    -1.426046    -0.629663
 H    -8.378218    -2.223323    -0.110453
 H    -3.449062     7.139527    -1.974066
 O    -3.523083     6.938420    -1.031441
 H    -3.217692     7.733691    -0.546524
 H     2.861238    -4.575921     2.134602
 O     1.949718    -4.928629     2.153783
 H     2.006328    -5.809379     1.729544
 H    -8.991921    -0.722859    -4.853372
 O    -8.916188    -1.281576    -5.661910
 H    -8.653383    -0.663705    -6.366819
 H     7.389004     0.123037    -4.101733
 O     8.053330     0.078208    -3.394359
 H     8.712236     0.757444    -3.596981
 H     4.092231     6.727290    -0.054806
 O     4.802422     6.104779    -0.279268
 H     4.346337     5.267243    -0.517575
 H    -8.087980     0.153629    -3.037154
 O    -8.994338     0.168822    -3.408488
 H    -9.578367    -0.087159    -2.693264
 H     5.947679     3.942191    -3.359267
 O     5.488724     3.144068    -3.038212
 H     6.094910     2.712790    -2.390855
 H    -1.323592    -6.925480    -0.039203
 O    -1.949553    -6.186698    -0.183259
 H    -2.556761    -6.482901    -0.868224
 H    -3.917285    -7.847953     0.900126
 O    -4.126168    -7.613664     1.807402
 H    -3.918913    -6.651871     1.887632
 H    -2.846070    -5.136318     1.109445
 O    -3.543788    -5.039152     1.777743
 H    -3.252652    -4.332301     2.389040
 H     5.371275    -6.244532     4.534032
 O     4.601000    -6.002075     4.016573
 H     4.878164    -6.066344     3.087339
 H    -9.655142    -6.205822    -3.823937
 O    -9.694553    -5.727837    -4.684112
 H    -10.342920    -6.193243    -5.212926
 H     6.301269    -5.621357     0.915625
 O     5.810070    -6.231734     1.503537
 H     5.344726    -6.812818     0.890306
 H    -1.301315    -6.810189     2.437707
 O    -1.432801    -7.772774     2.473839
 H    -2.391869    -7.905263     2.487659
 H    -10.194495    -4.033346    -4.346474
 O    -10.325675    -3.114723    -4.056978
 H    -10.115930    -2.546618    -4.810689
 H     0.251807     8.031941    -3.111222
 O     0.554875     8.877953    -3.502346
 H     1.462474     9.019955    -3.161567
 H    -9.141678    -7.981728    -2.489861
 O    -9.737039    -7.231229    -2.462055
 H    -9.602029    -6.814305    -1.591830
 H     2.123351     0.578779     4.521198
 O     2.234886    -0.281284     4.969105
 H     2.440573    -0.944330     4.276496
 H    -6.787303     0.490285    -7.446641
 O    -7.743856     0.564447    -7.295468
 H    -7.900429     1.458783    -6.989840
 H     5.971714     4.106506    -7.359885
 O     5.400418     4.021658    -6.596581
 H     4.543227     4.478275    -6.860743
 H    -5.479285     10.221154     0.971488
 O    -5.007501     10.263827     0.128959
 H    -5.602579     9.787707    -0.483261
 H    -0.982734    -1.003277    -5.774501
 O    -1.168377    -0.334796    -6.469322
 H    -0.388154     0.250645    -6.422144
 H     4.530748    -0.249188    -7.074181
 O     4.628621    -1.186250    -6.873571
 H     5.486188    -1.287059    -6.424095
 H     2.491608    -8.759157    -2.885848
 O     3.447653    -8.679330    -2.902466
 H     3.652490    -8.075473    -3.631638
 H    -4.468580    -0.315346    -7.802858
 O    -4.977131     0.426462    -7.441262
 H    -4.296826     1.067596    -7.132717
 H     1.401100     3.614756     6.702369
 O     2.157108     3.023169     6.883513
 H     2.963011     3.556434     6.752791
 H    -11.367723    -2.750467     0.201346
 O    -10.943414    -2.123709     0.787605
 H    -10.226470    -1.714598     0.271511
 H    -7.317025     1.778928     7.793648
 O    -7.800130     2.615963     7.738278
 H    -7.901149     2.934310     8.634788
 H     6.192456    -8.962201    -1.497712
 O     6.255396    -9.061038    -2.452719
 H     5.365564    -9.288913    -2.749916
 H     6.477483     5.317768    -0.849734
 O     7.117894     4.665590    -1.152454
 H     7.328421     4.122557    -0.364874
 H    -5.260537    -3.014254     5.891974
 O    -5.268234    -2.263693     6.526201
 H    -4.622575    -2.524085     7.205846
 H     2.707338     1.364636     7.430091
 O     3.179249     0.527238     7.318034
 H     2.846150     0.155227     6.474375
 H    -2.571890    -3.008675     7.042269
 O    -3.038936    -3.163352     7.891734
 H    -2.405744    -2.842141     8.550120
 H     5.851822     1.968992     6.562626
 O     5.564563     1.097211     6.285432
 H     4.690075     0.931650     6.694787
 H     2.061148    -4.411477     3.980506
 O     2.560981    -4.361615     4.807993
 H     3.265206    -5.024190     4.695526
 H     10.363769    -2.638271    -2.101097
 O     10.854406    -2.631467    -1.233778
 H     11.716399    -2.269636    -1.466903
 H     3.678000     8.378459    -2.811861
 O     3.002057     8.939330    -2.411758
 H     2.851195     8.569712    -1.522529
 H    -8.143117    -6.548347     0.428708
 O    -8.806918    -6.121360    -0.136864
 H    -8.756068    -5.176816     0.150199
 H    -0.955820     9.733128    -3.057026
 O    -1.890516     9.885426    -2.820842
 H    -1.936225     9.985343    -1.867477
 H     3.939464     4.130381    -3.780779
 O     3.379871     4.912740    -3.777979
 H     3.938357     5.688789    -3.564019
 H     5.004754     6.684689    -1.952148
 O     4.912294     6.911751    -2.898181
 H     5.687434     6.570559    -3.362367
 H    -0.354944     5.070578     6.194307
 O     0.358860     4.608105     5.732969
 H     1.038294     5.262777     5.441579
 H     3.204010     5.503451     5.182993
 O     2.427869     5.945393     4.807357
 H     2.357751     5.631360     3.891929
 H    -7.326209     8.915762     0.165469
 O    -7.054244     8.711898    -0.739027
 H    -6.812346     7.768999    -0.734164
 H    -1.229927    -5.105984     3.508117
 O    -0.803856    -4.995388     2.627604
 H     0.119712    -5.250968     2.698512
 H     4.341311    -2.213319     6.097937
 O     4.318937    -2.349883     5.126731
 H     3.607496    -3.000608     4.959020
 H     7.184943    -6.146556     2.886592
 O     7.577437    -5.795627     3.695769
 H     7.102293    -4.961130     3.873277
 H     9.184463    -5.211386     3.603878
 O     9.952394    -4.605654     3.479809
 H     9.822006    -3.959167     4.190006
 H     2.738356     8.123319    -7.964989
 O     2.765634     7.571076    -7.184987
 H     1.902252     7.704811    -6.723312
 H    -0.449983    -1.467308     8.094665
 O    -0.635507    -2.118270     8.786016
 H     0.080499    -2.757520     8.731732
 H     8.209952     4.621301    -2.368613
 O     8.872665     4.662658    -3.106078
 H     9.597978     5.182068    -2.759127
 H     6.161638     4.857069    -5.223136
 O     6.500044     5.240798    -4.392560
 H     7.450138     5.089821    -4.331526
 H     10.472710     2.352037    -4.378040
 O     9.758431     2.221615    -3.755922
 H     9.371917     3.105458    -3.563887
 H     3.297324    -2.532534     7.769378
 O     4.125034    -2.013791     7.763337
 H     3.841329    -1.092325     7.863253
 H    -2.656949    -1.827031    -8.757278
 O    -3.050782    -1.514869    -7.943588
 H    -2.339085    -1.062441    -7.441155
 H     5.027240     5.423578     1.525972
 O     4.844132     4.851986     2.281975
 H     3.877286     4.865204     2.404231
 H    -3.852253    -6.251089    -4.850987
 O    -3.052181    -5.728519    -4.941187
 H    -3.302542    -4.944667    -5.455522
 H    -6.567129     6.011840     5.198258
 O    -6.146453     6.845983     4.919123
 H    -6.036085     6.781814     3.944521
 H    -7.411210     3.949525     6.398656
 O    -7.175130     4.397264     5.576523
 H    -6.936033     3.683798     4.962872
 H    -7.352999     9.377418     2.808973
 O    -7.134521     9.787208     1.946945
 H    -7.612383     10.616987     1.923401
 H    -5.903385    -7.033491     1.720497
 O    -6.533066    -6.402549     1.338197
 H    -6.016881    -5.942018     0.642360
 H    -3.596836    -4.877619     7.635176
 O    -3.832620    -5.716483     7.199679
 H    -3.050591    -5.971712     6.696623
 H     9.468732     0.942484    -0.914889
 O     9.543794     1.918589    -0.964959
 H     9.822265     2.074248    -1.879525
 H    -7.890835    -4.341582     3.379596
 O    -6.962525    -4.595593     3.355617
 H    -6.845655    -5.221933     2.612724
 H     1.193659    -2.408608     6.838870
 O     1.707643    -3.150997     7.174596
 H     1.909531    -3.706160     6.405164
 H    -3.625055    -2.791631    -6.789647
 O    -4.017043    -3.434216    -6.180157
 H    -4.968673    -3.311461    -6.236570
 H    -8.741842     8.218562     4.231579
 O    -7.954473     8.756999     4.324266
 H    -7.261599     8.162453     4.681727
 H     7.860266    -1.928050    -5.399979
 O     6.933285    -1.684485    -5.395355
 H     6.485644    -2.341653    -4.829245
 H    -4.753215    -5.062816     5.818121
 O    -4.823907    -4.466096     5.047433
 H    -5.597506    -4.713704     4.520804
 N     10.240795    -1.189794     3.337627
 H     10.277013    -1.878287     2.590280
 H     11.182371    -1.088687     3.702862
 H     9.982665    -0.305823     2.905734
