604
grain_mol7 // -1574.407454699488 // -39.9932144616 // -591.615020331088 // -1022.78564883 // -0.0351105396 // -0.583434739668 // -0.009483493455
 H    -1.754686    -0.235399     2.471731
 O    -0.776438    -0.192682     2.539623
 H    -0.479271    -1.095930     2.800042
 H    -0.439524    -1.636144    -2.993181
 O    -0.495423    -1.715669    -2.028417
 H    -1.441230    -1.657986    -1.813360
 H    -2.780062     1.747010     0.993604
 O    -2.684080     1.155744     0.228232
 H    -1.912344     1.485948    -0.266409
 H    -3.842926     2.080723    -2.846017
 O    -3.348576     2.486073    -3.596527
 H    -2.442225     2.615708    -3.298474
 H    -0.130094    -0.537097    -0.859595
 O    -0.008272     0.153680    -0.179573
 H    -0.415276    -0.195089     0.624282
 H     0.880894    -1.549069    -4.942034
 O    -0.050332    -1.759834    -4.763036
 H    -0.126065    -2.721350    -4.857631
 H    -5.023790     2.416695    -1.056280
 O    -4.648366     1.623813    -1.486223
 H    -3.956435     1.316883    -0.853319
 H    -3.586674     3.167172     2.747241
 O    -2.856712     2.577909     2.476003
 H    -2.082897     2.905196     2.970392
 H     2.478131     0.541642    -2.978667
 O     1.892832    -0.130578    -2.573988
 H     0.980488     0.173256    -2.744099
 H    -1.226672     0.569767    -3.570391
 O    -0.425009     1.047121    -3.271223
 H    -0.671717     1.591335    -2.505352
 H     2.673589    -0.526778     0.466049
 O     2.584287    -1.232717    -0.206492
 H     2.297558    -0.801965    -1.034047
 H    -2.870866    -0.449169    -0.594756
 O    -3.014603    -0.857682    -1.458663
 H    -3.806371    -1.423282    -1.404441
 H     2.763590     1.394219    -0.784181
 O     1.937119     1.883152    -0.622805
 H     1.236938     1.211839    -0.478231
 H     0.435669     3.433010    -3.053781
 O     1.361300     3.252221    -2.843646
 H     1.387170     2.737419    -2.016549
 H     0.167372    -3.909304    -0.826158
 O    -0.065548    -4.555255    -1.531582
 H    -0.832283    -5.048098    -1.160019
 H    -6.248541     1.860228     3.228204
 O    -6.293481     1.999718     4.210450
 H    -7.028422     1.437673     4.525743
 H     1.208816    -3.745743     1.012643
 O     0.769281    -3.061481     0.470324
 H     1.435194    -2.379736     0.249964
 H    -3.023984     5.259909    -0.632150
 O    -2.820287     4.434394    -0.153665
 H    -3.698276     4.039539     0.029470
 H    -5.475527    -1.439241     1.667790
 O    -5.226404    -0.755537     1.009840
 H    -5.339755    -1.163906     0.146289
 H    -0.253081    -3.358851     2.808248
 O     0.052751    -2.575673     3.298052
 H     0.987270    -2.432818     3.072739
 H     5.190139     1.232222    -1.199274
 O     4.416985     0.677165    -1.023933
 H     4.667923     0.213728    -0.193442
 H     0.688830     2.373853     1.171654
 O     0.702396     1.980513     2.053718
 H     0.106383     1.209492     2.066076
 H     4.397559    -0.235609    -2.445230
 O     4.592318    -0.665219    -3.309070
 H     5.053487     0.021974    -3.833657
 H     2.957352     3.406601    -0.853899
 O     3.829126     3.822221    -0.821150
 H     4.304658     3.588724    -1.641282
 H    -5.902885    -1.444525    -1.918733
 O    -5.354414    -2.160635    -1.531180
 H    -5.267368    -2.834160    -2.227781
 H    -4.842866    -4.185298     1.038921
 O    -5.546171    -3.550243     0.806580
 H    -5.335025    -3.208042    -0.072437
 H     2.594887     2.460674    -3.581251
 O     3.276711     1.806958    -3.839752
 H     3.331032     1.829997    -4.800699
 H    -5.175369     3.553189     4.037926
 O    -4.622493     4.181639     3.561595
 H    -4.094064     4.682920     4.218849
 H     0.524013     1.349373    -4.684674
 O     1.002877     1.295133    -5.537276
 H     1.622815     0.543448    -5.435188
 H     0.877584     5.975284    -1.948883
 O     1.683573     5.634828    -1.524335
 H     2.232813     5.239361    -2.229903
 H    -2.780137    -3.374338    -1.985183
 O    -2.910681    -3.683752    -1.072895
 H    -3.662502    -4.292773    -1.069209
 H     1.901526     5.515314    -4.251307
 O     1.018111     5.615005    -4.646671
 H     1.005983     4.961897    -5.371998
 H     7.703219     2.067526    -0.931200
 O     6.913795     1.721152    -1.386092
 H     7.274372     1.081420    -2.033134
 H     4.444781     2.866179     0.426966
 O     4.799635     2.461996     1.244753
 H     4.725121     3.169009     1.918920
 H     1.062849    -2.980623    -2.417743
 O     1.909858    -2.784555    -2.844443
 H     1.979990    -1.807478    -2.813489
 H     1.080934     4.689100    -0.337925
 O     0.643722     4.165173     0.371035
 H    -0.038719     4.739404     0.762360
 H    -5.756169     0.842458     1.372769
 O    -6.252483     1.647848     1.622207
 H    -7.184915     1.409581     1.385498
 H    -2.244139    -2.662322     0.103617
 O    -1.765465    -2.123945     0.762680
 H    -0.851139    -2.451182     0.722214
 H    -3.616719    -0.666443     4.274311
 O    -3.590506    -0.860357     5.239133
 H    -4.329569    -1.468301     5.469127
 H    -5.976706    -3.155528     3.099774
 O    -5.545798    -2.295413     3.235851
 H    -4.589497    -2.504121     3.203836
 H    -2.922039    -0.231280    -2.997094
 O    -2.674981    -0.231192    -3.948841
 H    -2.502619    -1.188789    -4.090262
 H    -3.466840    -3.183709    -3.903541
 O    -2.609243    -2.802916    -3.650522
 H    -1.911404    -3.408545    -3.970052
 H     3.148097    -0.797359    -4.410435
 O     2.584550    -0.876048    -5.203856
 H     3.207788    -0.985659    -5.940064
 H     4.503544     2.877025    -6.551247
 O     3.987268     2.047283    -6.609914
 H     3.138820     2.292651    -6.988132
 H    -4.117273     0.526898     5.875192
 O    -4.608534     1.325462     6.197697
 H    -5.189933     1.587044     5.455236
 H    -3.930870    -0.276045     2.029597
 O    -3.384758    -0.001452     2.786038
 H    -3.320238     0.974809     2.766378
 H    -5.863857     0.642092    -2.133289
 O    -6.403492     0.000052    -2.639309
 H    -5.989417    -0.031110    -3.523420
 H     1.864778    -3.480186    -4.430730
 O     1.800669    -3.883025    -5.318877
 H     1.417981    -4.763982    -5.175109
 H     4.505006    -3.404788    -0.985523
 O     4.783006    -2.685235    -0.377044
 H     4.007877    -2.078329    -0.323190
 H    -0.328858     3.096907    -0.714311
 O    -1.079354     2.740594    -1.218673
 H    -1.802732     3.374863    -1.033302
 H     1.699257     4.340201     1.799953
 O     2.166663     4.426408     2.650905
 H     1.998671     3.600622     3.131418
 H     3.694842     1.159607     1.631430
 O     2.937170     0.557822     1.765296
 H     2.156886     1.117702     1.943811
 H     3.156975    -3.728645    -2.422258
 O     3.874022    -4.360592    -2.170005
 H     4.539992    -4.303288    -2.872578
 H     4.939040    -3.350589    -4.883076
 O     5.379207    -3.085604    -4.038595
 H     4.963272    -2.254271    -3.732098
 H    -1.141599     4.909114     2.447129
 O    -1.343965     5.512336     1.694170
 H    -1.980581     5.043969     1.094844
 H    -5.748179     3.060561     0.763146
 O    -5.317831     3.617891     0.086912
 H    -5.786738     4.473223    -0.000498
 H     5.116507    -3.937654     2.538229
 O     4.352456    -3.710178     2.003273
 H     4.664699    -3.371170     1.135557
 H     5.866101    -1.246247     1.123357
 O     5.453648    -0.361886     1.181243
 H     6.228810     0.228000     1.254495
 H     1.648484    -6.403738    -3.554624
 O     1.454622    -6.559458    -4.504716
 H     2.323828    -6.591907    -4.930468
 H    -7.144351    -3.769658     0.625283
 O    -8.115688    -3.768345     0.441135
 H    -8.563177    -3.643347     1.306181
 H     3.303026    -2.528669     2.545532
 O     2.611803    -1.882955     2.790435
 H     2.813259    -1.043678     2.339307
 H    -1.888165     2.319280     5.276050
 O    -2.613530     2.938074     5.480508
 H    -3.338398     2.395050     5.844258
 H    -0.774350     0.639581     4.031930
 O    -0.648344     1.138039     4.870471
 H     0.180479     1.614921     4.754070
 H     0.065926     3.941501    -6.703324
 O     1.025869     3.753298    -6.611884
 H     1.065371     2.872314    -6.193365
 H     7.284743    -3.020583     4.321812
 O     6.519100    -3.464804     3.880274
 H     5.729975    -3.159173     4.416373
 H     7.974356     1.562881     1.330051
 O     7.912422     0.615926     1.557146
 H     8.395223     0.114118     0.874168
 H    -4.177580    -0.220691    -4.640976
 O    -5.111454    -0.255133    -4.962542
 H    -5.121841     0.180113    -5.836887
 H     6.409120    -1.111546    -2.406080
 O     6.841734    -1.611811    -1.708825
 H     6.126931    -1.941852    -1.131359
 H     4.785439    -1.016195     4.256037
 O     5.170202    -0.230298     3.831081
 H     5.103164    -0.330764     2.857700
 H    -0.040395     3.131323     3.077610
 O    -0.672929     3.748390     3.497455
 H    -0.351328     3.951678     4.396996
 H     8.228968    -0.974261    -0.973604
 O     9.018700    -0.616274    -0.510596
 H     9.727469    -1.260049    -0.645473
 H     9.708460    -3.701536     1.673968
 O     9.382969    -3.475462     0.776176
 H     10.130697    -3.258297     0.208469
 H    -2.300104    -2.871814     3.673209
 O    -2.935866    -2.918428     2.949295
 H    -2.500322    -2.528253     2.149826
 H    -2.305819     1.194586    -6.197744
 O    -2.947710     1.931483    -6.175130
 H    -3.186719     2.046130    -5.231789
 H    -1.417291     4.217382    -5.234749
 O    -1.556870     4.247278    -6.209863
 H    -2.135864     3.486254    -6.394926
 H    -4.527754    -6.198551    -1.527781
 O    -5.006427    -5.489109    -1.073330
 H    -5.788290    -5.289894    -1.631841
 H     2.734934    -5.585132    -1.969882
 O     1.940921    -6.153793    -1.914547
 H     1.168872    -5.548905    -1.740181
 H     3.241297    -3.758161    -6.008266
 O     4.196260    -3.713859    -6.290578
 H     4.285190    -2.934843    -6.846197
 H     7.438954     3.494053     2.125904
 O     7.345993     3.196666     1.212020
 H     6.421018     2.852201     1.153575
 H     6.688813    -3.704307    -0.076722
 O     7.187982    -4.487263    -0.363050
 H     8.078609    -4.335905     0.008890
 H    -7.477487    -4.352615    -2.660669
 O    -7.227907    -5.290768    -2.507049
 H    -7.830352    -5.621207    -1.813432
 H    -4.430070     6.377863     5.423481
 O    -3.541885     6.076545     5.153659
 H    -3.040664     5.824213     5.944123
 H     7.275588     3.392438     4.897563
 O     7.265555     3.051720     3.993576
 H     7.536988     2.116591     4.061709
 H    -5.702948     0.342515     7.052305
 O    -6.457133    -0.232602     7.319142
 H    -6.167688    -1.137829     7.116582
 H    -0.452535    -4.621309    -3.251962
 O    -0.640384    -4.463490    -4.195268
 H    -1.224718    -5.167041    -4.505913
 H     6.768449     0.116668     4.187907
 O     7.734698     0.328320     4.142670
 H     7.931663     0.356162     3.179603
 H     4.840066    -6.215235    -4.434082
 O     4.138531    -6.360522    -5.105068
 H     4.238806    -5.644586    -5.741158
 H    -5.990046    -1.597791    -5.290513
 O    -6.593779    -2.364339    -5.443334
 H    -7.459461    -1.942188    -5.681023
 H    -7.579659     0.122555     6.148232
 O    -8.160977     0.493334     5.436871
 H    -8.776921     1.081014     5.877548
 H    -5.307716     5.510388     2.733090
 O    -5.565978     6.433673     2.535057
 H    -4.718063     6.924624     2.534426
 H     5.655121     2.027475    -4.017303
 O     5.898139     1.287829    -4.615820
 H     5.388213     1.424062    -5.416859
 H    -5.995249     6.338927     0.880547
 O    -6.035205     6.177685    -0.085331
 H    -5.156357     6.454008    -0.421134
 H    -0.200679    -7.181397    -3.665439
 O    -0.887141    -7.364430    -3.013485
 H    -0.468247    -7.754080    -2.236879
 H    -2.411400    -1.979536     5.412537
 O    -1.743385    -2.701260     5.493796
 H    -0.914118    -2.234029     5.708107
 H     7.556318    -4.188720    -2.010573
 O     7.657052    -4.109527    -2.983737
 H     6.868334    -3.624957    -3.282946
 H    -8.847681    -2.835397    -3.353686
 O    -7.921988    -2.758523    -3.027219
 H    -7.395183    -2.507002    -3.801089
 H     8.812894    -2.882703    -3.308352
 O     9.427779    -2.134777    -3.464830
 H     8.913502    -1.323120    -3.304746
 H    -5.078166    -4.768725    -3.854697
 O    -5.057788    -3.815860    -3.662150
 H    -5.598176    -3.386980    -4.337074
 H    -3.811689     4.207067    -3.216673
 O    -3.531071     5.041050    -2.805874
 H    -3.842642     5.770561    -3.342925
 H    -0.430798     5.040512    -3.744461
 O    -1.070575     4.324289    -3.583363
 H    -1.855022     4.727027    -3.159295
 H    -1.787765    -4.436178     5.073228
 O    -2.071666    -5.278835     4.685748
 H    -3.010632    -5.136803     4.473396
 H    -2.652385     8.607975    -3.166766
 O    -2.840416     7.661506    -3.332196
 H    -2.655151     7.491556    -4.282098
 H    -3.080133     7.055705     3.741302
 O    -3.028798     7.315573     2.806161
 H    -2.424849     6.662022     2.398096
 H     4.836553     1.403922     4.164400
 O     4.660569     2.365042     4.066391
 H     5.522422     2.758746     3.833575
 H     7.997199    -1.976323     5.946655
 O     8.433524    -2.114708     5.082906
 H     8.365133    -1.240266     4.650467
 H     6.163613    -1.865135     7.504298
 O     6.859527    -1.311139     7.136137
 H     6.386404    -0.537177     6.755820
 H    -1.986389     6.069756    -6.071858
 O    -2.135162     6.992718    -5.814736
 H    -1.274599     7.440782    -5.898775
 H    -8.131971    -0.583483     4.042926
 O    -7.952606    -1.062882     3.221874
 H    -7.040102    -1.398111     3.283356
 H    -8.534448    -0.014661     0.326127
 O    -8.562936     0.575196     1.097722
 H    -8.509945    -0.020208     1.864747
 H     0.935410    -0.886670     5.808388
 O     0.116167    -1.008049     6.343176
 H    -0.407808    -0.227329     6.092919
 H    -0.649261     7.131122    -1.214046
 O    -0.616518     6.806524    -2.136308
 H    -1.483387     7.016832    -2.551044
 H     0.725180    -7.998981     0.008281
 O    -0.181304    -8.248644    -0.230430
 H    -0.612572    -8.377946     0.641749
 H     2.042552     2.389737     5.337973
 O     2.039388     2.171316     4.382057
 H     2.974709     2.228998     4.114476
 H    -7.998622    -5.251427    -5.754999
 O    -7.112057    -5.068804    -6.107251
 H    -6.975105    -4.119236    -5.992972
 H     3.182454    -7.536109     0.484477
 O     2.284672    -7.196177     0.463660
 H     2.187765    -6.796481    -0.437133
 H     3.053792     6.259818    -7.115925
 O     3.222193     5.311529    -7.302750
 H     2.405997     4.831617    -7.093003
 H    -0.659821     6.952175     0.949108
 O    -0.378413     7.700922     0.396714
 H    -1.065543     8.373816     0.505572
 H     4.443850     3.421444     5.340237
 O     4.360073     4.018186     6.122884
 H     5.247550     4.073883     6.486901
 H     7.697280     2.533635     6.806793
 O     7.152006     3.364432     6.796418
 H     7.636787     4.001868     7.319495
 H     4.161622    -7.805766    -1.648852
 O     4.685411    -7.306114    -1.001550
 H     5.101453    -6.612427    -1.537788
 H     6.752025    -5.594183    -3.218392
 O     5.996027    -6.209722    -3.196653
 H     6.351190    -7.116706    -3.191086
 H    -8.919918    -2.456739     2.986750
 O    -9.394199    -3.267554     2.705929
 H    -10.146872    -2.941592     2.183733
 H    -2.842950     8.639627     1.592746
 O    -2.725143     9.056298     0.722840
 H    -3.535065     9.611576     0.603670
 H     8.198772     0.363441     7.203362
 O     8.517812     1.101278     6.672627
 H     8.356625     0.831193     5.751857
 H    -2.340844     4.588836     7.993684
 O    -2.080606     4.869657     7.117545
 H    -2.268324     4.098209     6.503336
 H    -6.265736    -6.266260    -3.652072
 O    -5.607519    -6.404189    -4.357447
 H    -6.069554    -6.074034    -5.158076
 H     6.859498    -2.798718     2.340299
 O     6.962647    -2.471376     1.427446
 H     7.906491    -2.520833     1.217417
 H     2.162699     6.821280    -0.467760
 O     2.415355     7.526321     0.169806
 H     1.571651     7.825059     0.531062
 H    -4.138014    -7.192022    -3.306941
 O    -3.560993    -7.276080    -2.539224
 H    -2.654952    -7.358345    -2.887673
 H     0.622823     7.104727    -5.230040
 O     0.426356     7.998909    -5.594965
 H     0.446312     8.582271    -4.808337
 H    -8.303867    -1.648645    -1.645272
 O    -8.583941    -1.443602    -0.739651
 H    -8.329376    -2.260395    -0.253941
 H    -3.467989     7.211993    -1.692865
 O    -3.544358     6.970288    -0.759992
 H    -3.247466     7.746532    -0.240272
 H     2.904958    -4.629471     1.971074
 O     1.991793    -4.968298     1.914946
 H     2.071977    -5.839736     1.479385
 H    -8.934927    -0.563142    -4.931133
 O    -8.851396    -1.086138    -5.762467
 H    -8.590367    -0.436717    -6.439103
 H     7.435343     0.380021    -4.070125
 O     8.094935     0.309694    -3.360723
 H     8.751932     0.999917    -3.528760
 H     4.068049     6.777316     0.242178
 O     4.784310     6.169711    -0.002966
 H     4.335942     5.340397    -0.281449
 H    -8.045790     0.241816    -3.075164
 O    -8.950750     0.266015    -3.449466
 H    -9.535566    -0.025528    -2.748642
 H     5.960717     4.150618    -3.169086
 O     5.506031     3.336603    -2.883993
 H     6.113694     2.880822    -2.254350
 H    -1.236188    -6.905318    -0.349955
 O    -1.868800    -6.166604    -0.465300
 H    -2.469481    -6.438557    -1.165811
 H    -3.826846    -7.888127     0.536288
 O    -4.044381    -7.693655     1.450924
 H    -3.843569    -6.734966     1.573209
 H    -2.778759    -5.180316     0.865896
 O    -3.480496    -5.116071     1.534168
 H    -3.196793    -4.434590     2.176690
 H     4.596257    -6.483487     4.412643
 O     3.980779    -6.255805     3.665839
 H     4.535942    -6.144600     2.877653
 H    -9.558290    -6.090353    -4.139955
 O    -9.598022    -5.576305    -4.979071
 H    -10.240086    -6.023999    -5.530381
 H     6.318075    -5.560553     0.730287
 O     5.847691    -6.197324     1.309955
 H     5.458235    -6.803894     0.661284
 H    -1.225173    -6.897122     2.128597
 O    -1.351988    -7.860736     2.124024
 H    -2.310067    -7.999625     2.127583
 H    -10.112860    -3.901814    -4.571781
 O    -10.252886    -2.997445    -4.244049
 H    -10.044207    -2.396060    -4.971792
 H     0.230504     8.181389    -2.773564
 O     0.528326     9.045839    -3.126495
 H     1.433346     9.180208    -2.775946
 H    -9.036133    -7.917438    -2.881037
 O    -9.637962    -7.173805    -2.823599
 H    -9.509668    -6.793369    -1.935808
 H     2.128429     0.422036     4.541627
 O     2.248352    -0.454753     4.953379
 H     2.459398    -1.086695     4.233177
 H    -6.728991     0.776799    -7.459981
 O    -7.686775     0.837053    -7.310354
 H    -7.851748     1.716206    -6.967380
 H     6.000078     4.486461    -7.159409
 O     5.425966     4.364895    -6.403210
 H     4.566392     4.825491    -6.651822
 H    -5.535590     10.148808     1.372322
 O    -5.060450     10.231185     0.534643
 H    -5.649020     9.777091    -0.100198
 H    -0.919649    -0.741336    -5.826439
 O    -1.108048    -0.044928    -6.492610
 H    -0.332605     0.543861    -6.417186
 H     4.593710     0.110904    -7.066778
 O     4.697592    -0.833116    -6.905967
 H     5.554100    -0.946973    -6.457378
 H     2.605692    -8.585393    -3.252760
 O     3.561200    -8.498819    -3.264452
 H     3.763076    -7.861685    -3.965468
 H    -4.402358     0.005535    -7.839550
 O    -4.918442     0.727215    -7.449005
 H    -4.244614     1.359823    -7.110158
 H     1.372809     3.355727     6.848009
 O     2.133264     2.763242     7.007159
 H     2.934436     3.309087     6.903543
 H    -11.315786    -2.824045     0.021156
 O    -10.899332    -2.219277     0.635480
 H    -10.183280    -1.783137     0.140676
 H    -7.334682     1.408263     7.818542
 O    -7.824074     2.243203     7.796966
 H    -7.931657     2.521833     8.705841
 H     6.300195    -8.817379    -1.858721
 O     6.369406    -8.877608    -2.816549
 H     5.482310    -9.097509    -3.127734
 H     6.469176     5.420158    -0.595973
 O     7.115090     4.786853    -0.925727
 H     7.329737     4.209041    -0.165115
 H    -5.231582    -3.282475     5.723426
 O    -5.247894    -2.559757     6.389238
 H    -4.603128    -2.844213     7.059978
 H     2.697226     1.085257     7.483619
 O     3.179108     0.259062     7.335885
 H     2.848800    -0.080444     6.477270
 H    -2.548006    -3.305606     6.885321
 O    -3.017307    -3.499467     7.725425
 H    -2.389497    -3.201613     8.399749
 H     5.836265     1.755191     6.658552
 O     5.562919     0.892658     6.341121
 H     4.686453     0.700843     6.736265
 H     1.716126    -4.137022     3.989685
 O     2.418384    -4.329591     4.626139
 H     2.943248    -5.073233     4.212192
 H     10.415458    -2.381535    -2.168457
 O     10.928950    -2.433680    -1.316684
 H     11.852925    -2.375196    -1.553457
 H     3.652502     8.541771    -2.443759
 O     2.970356     9.079617    -2.023064
 H     2.818764     8.671117    -1.151195
 H    -8.061578    -6.602501     0.100788
 O    -8.726760    -6.157098    -0.448802
 H    -8.684548    -5.225287    -0.121640
 H    -0.991076     9.869166    -2.652306
 O    -1.927941     10.003964    -2.414056
 H    -1.978453     10.062557    -1.457510
 H     3.952213     4.341214    -3.592512
 O     3.386229     5.118248    -3.557832
 H     3.937852     5.888775    -3.309147
 H     4.990136     6.822964    -1.650957
 O     4.899049     7.089832    -2.586452
 H     5.678520     6.774885    -3.061982
 H    -0.392297     4.818910     6.394240
 O     0.327910     4.382410     5.917613
 H     1.002195     5.054942     5.656878
 H     3.166977     5.324449     5.418085
 O     2.388915     5.775520     5.057983
 H     2.325133     5.500451     4.129607
 H    -7.368468     8.864576     0.502650
 O    -7.090843     8.701854    -0.408430
 H    -6.841436     7.761527    -0.442875
 H    -1.168236    -5.241963     3.272744
 O    -0.741720    -5.083003     2.400726
 H     0.183305    -5.341366     2.455526
 H     4.372483    -2.404223     6.013272
 O     4.365164    -2.512489     5.035640
 H     3.603366    -3.123309     4.853787
 H     7.323811    -6.290024     2.768800
 O     7.735547    -5.883111     3.548527
 H     7.180810    -5.085080     3.714297
 H     9.269013    -4.764375     3.468576
 O     9.902332    -4.026486     3.344637
 H     9.649064    -3.374969     4.017220
 H     2.736890     8.499914    -7.607474
 O     2.765302     7.915340    -6.851441
 H     1.898833     8.022276    -6.388661
 H    -0.448376    -1.792708     8.013441
 O    -0.628275    -2.473526     8.676826
 H     0.093396    -3.103915     8.596592
 H     8.213612     4.803977    -2.140133
 O     8.876845     4.885872    -2.873272
 H     9.598716     5.391189    -2.499270
 H     6.174742     5.146513    -4.991712
 O     6.505801     5.497321    -4.143822
 H     7.456952     5.352081    -4.084476
 H     10.503498     2.642225    -4.235906
 O     9.781988     2.482983    -3.629353
 H     9.388176     3.355420    -3.403874
 H     3.331561    -2.810650     7.666538
 O     4.158325    -2.288062     7.689078
 H     3.865654    -1.373406     7.820975
 H    -2.574391    -1.449998    -8.849156
 O    -2.974439    -1.175369    -8.025026
 H    -2.268471    -0.739638    -7.500231
 H     5.006534     5.414447     1.769897
 O     4.825391     4.809359     2.500199
 H     3.857764     4.810151     2.618221
 H    -3.751013    -6.046073    -5.141413
 O    -2.954787    -5.513898    -5.205436
 H    -3.208968    -4.710701    -5.686909
 H    -6.607575     5.754165     5.410149
 O    -6.192264     6.602712     5.168962
 H    -6.077333     6.581236     4.192982
 H    -7.440321     3.635725     6.517274
 O    -7.204040     4.120169     5.716286
 H    -6.956817     3.435553     5.073653
 H    -7.410274     9.212598     3.163406
 O    -7.191323     9.660595     2.320741
 H    -7.675926     10.486737     2.330287
 H    -5.823808    -7.124693     1.380471
 O    -6.457245    -6.482771     1.023196
 H    -5.941814    -5.988989     0.349912
 H    -3.560081    -5.206094     7.392796
 O    -3.787113    -6.027750     6.921491
 H    -3.001606    -6.254114     6.409953
 H     9.496187     1.071829    -0.689181
 O     9.525076     2.037876    -0.815406
 H     9.813752     2.166944    -1.724946
 H    -7.840040    -4.522314     3.144131
 O    -6.909606    -4.767685     3.113920
 H    -6.784200    -5.360754     2.345444
 H     1.235291    -2.628975     6.785742
 O     1.747244    -3.392157     7.075295
 H     1.946715    -3.896199     6.268195
 H    -3.543227    -2.504993    -6.929224
 O    -3.932852    -3.176109    -6.349731
 H    -4.885153    -3.058431    -6.405289
 H    -8.795874     7.983027     4.528438
 O    -8.013294     8.523149     4.648005
 H    -7.317220     7.919269     4.982827
 H     7.928809    -1.610885    -5.449750
 O     6.999496    -1.376059    -5.440681
 H     6.555190    -2.060131    -4.904641
 H    -4.707680    -5.322387     5.564296
 O    -4.780331    -4.692912     4.820391
 H    -5.548967    -4.924254     4.279268
 N     5.747965    -6.692523     5.771473
 H     5.707424    -7.546610     6.318071
 H     5.721036    -5.915117     6.424875
 H     6.650994    -6.660411     5.297120
