604
grain_mol103 // -1645.759270878675 // -45.0409722119 // -668.016673440575 // -1022.78356965 // -0.0379826776 // -0.583890410903 // -0.010524007193
 H    -1.871761    -0.122002     2.472152
 O    -0.896020    -0.109864     2.576522
 H    -0.640881    -1.012211     2.882249
 H    -0.394627    -1.773647    -2.879808
 O    -0.491698    -1.817251    -1.915926
 H    -1.442343    -1.716276    -1.741903
 H    -2.766605     1.836055     0.882442
 O    -2.661996     1.213495     0.143401
 H    -1.860269     1.498690    -0.331296
 H    -3.665776     2.060662    -3.006582
 O    -3.128266     2.419703    -3.750977
 H    -2.230254     2.529718    -3.421375
 H    -0.130301    -0.606848    -0.777236
 O    -0.009792     0.104207    -0.118465
 H    -0.461127    -0.197998     0.680596
 H     1.002942    -1.805061    -4.776274
 O     0.058547    -1.977741    -4.626814
 H    -0.047252    -2.938867    -4.690259
 H    -4.903054     2.504654    -1.279602
 O    -4.539792     1.683493    -1.664647
 H    -3.884450     1.377604    -0.993381
 H    -3.589600     3.348973     2.549006
 O    -2.871404     2.724889     2.329090
 H    -2.106071     3.043953     2.841850
 H     2.596460     0.299988    -2.828138
 O     1.972026    -0.335919    -2.421497
 H     1.078914    -0.006952    -2.639461
 H    -1.079359     0.434556    -3.568741
 O    -0.273414     0.894202    -3.254435
 H    -0.529854     1.475885    -2.519980
 H     2.618338    -0.642016     0.658952
 O     2.528940    -1.370430     0.010358
 H     2.292005    -0.961278    -0.843917
 H    -2.874128    -0.413152    -0.627401
 O    -2.997976    -0.850474    -1.480284
 H    -3.811753    -1.384935    -1.437577
 H     2.826352     1.226767    -0.656657
 O     2.011776     1.748704    -0.545752
 H     1.283327     1.107559    -0.405659
 H     0.662411     3.256159    -3.089948
 O     1.572123     3.052430    -2.836721
 H     1.548344     2.568235    -1.991382
 H     0.043418    -3.982347    -0.611369
 O    -0.183166    -4.648697    -1.298922
 H    -0.982632    -5.098589    -0.941742
 H    -6.313471     2.153701     2.969532
 O    -6.391701     2.331677     3.943377
 H    -7.158167     1.807746     4.249101
 H     1.017180    -3.778240     1.272011
 O     0.628309    -3.109519     0.679077
 H     1.324375    -2.456330     0.461859
 H    -2.820460     5.291621    -0.878972
 O    -2.665538     4.478123    -0.363133
 H    -3.563605     4.121048    -0.201251
 H    -5.599054    -1.227104     1.563277
 O    -5.299898    -0.578112     0.891180
 H    -5.394355    -1.014761     0.039316
 H    -0.498146    -3.279935     2.989270
 O    -0.186516    -2.485342     3.454838
 H     0.763942    -2.396930     3.274970
 H     5.258755     0.965144    -0.967884
 O     4.460409     0.443582    -0.801969
 H     4.662891     0.005518     0.054751
 H     0.713798     2.350179     1.177479
 O     0.678537     1.989989     2.073038
 H     0.054707     1.241361     2.089344
 H     4.464208    -0.521033    -2.190114
 O     4.677503    -0.990795    -3.027973
 H     5.182157    -0.338834    -3.559108
 H     3.095197     3.226701    -0.792942
 O     3.979327     3.612360    -0.738225
 H     4.479161     3.333480    -1.529954
 H    -5.885655    -1.353936    -2.034901
 O    -5.378681    -2.073426    -1.599874
 H    -5.289047    -2.775336    -2.267507
 H    -5.041346    -4.015375     1.061102
 O    -5.711639    -3.365764     0.777423
 H    -5.454290    -3.064418    -0.104232
 H     2.806575     2.190126    -3.496433
 O     3.469563     1.499884    -3.700566
 H     3.569456     1.485728    -4.659082
 H    -5.212589     3.838358     3.759556
 O    -4.619393     4.428776     3.283095
 H    -4.099339     4.936267     3.942317
 H     0.741078     1.110417    -4.638955
 O     1.247070     1.006039    -5.470736
 H     1.839703     0.241365    -5.315635
 H     1.153513     5.821142    -2.062867
 O     1.928930     5.469634    -1.593191
 H     2.492364     5.029692    -2.260532
 H    -2.834160    -3.390786    -1.904734
 O    -3.009691    -3.662873    -0.988014
 H    -3.784207    -4.242794    -0.992302
 H     2.248841     5.238755    -4.302838
 O     1.386338     5.354135    -4.738970
 H     1.380063     4.673936    -5.438902
 H     7.788862     1.722276    -0.628094
 O     7.005624     1.384403    -1.099724
 H     7.368407     0.711212    -1.710442
 H     4.510590     2.683896     0.567222
 O     4.816900     2.298418     1.413398
 H     4.742868     3.033173     2.057266
 H     1.033569    -3.144663    -2.197229
 O     1.904273    -2.996101    -2.594135
 H     2.009017    -2.021261    -2.597828
 H     1.247047     4.590830    -0.398847
 O     0.763020     4.109621     0.310111
 H     0.087643     4.721947     0.652648
 H    -5.785774     1.049975     1.173832
 O    -6.262266     1.880800     1.373345
 H    -7.192679     1.666011     1.108103
 H    -2.355226    -2.619464     0.175742
 O    -1.884111    -2.073084     0.833708
 H    -0.981297    -2.431907     0.843405
 H    -3.817074    -0.420331     4.212605
 O    -3.835536    -0.578792     5.184069
 H    -4.604630    -1.151330     5.406185
 H    -6.217154    -2.869729     3.035692
 O    -5.761110    -2.020474     3.157216
 H    -4.812444    -2.263098     3.171781
 H    -2.823488    -0.285802    -3.035682
 O    -2.540137    -0.330400    -3.976198
 H    -2.396195    -1.297839    -4.075471
 H    -3.438181    -3.250005    -3.854834
 O    -2.578009    -2.889902    -3.581079
 H    -1.890328    -3.530216    -3.850781
 H     3.273505    -1.111974    -4.182092
 O     2.738033    -1.204767    -4.993256
 H     3.386228    -1.358225    -5.699785
 H     4.557126     2.440064    -6.336404
 O     4.111108     1.558860    -6.422759
 H     3.269845     1.745030    -6.859480
 H    -4.336346     0.849306     5.747485
 O    -4.811134     1.675714     6.020463
 H    -5.353141     1.928897     5.245992
 H    -4.028967    -0.104709     1.944231
 O    -3.503627     0.179136     2.711812
 H    -3.402881     1.151167     2.659202
 H    -5.763526     0.720450    -2.323850
 O    -6.305564     0.078435    -2.827410
 H    -5.858752    -0.000284    -3.692407
 H     1.896244    -3.748778    -4.155636
 O     1.852000    -4.183411    -5.029883
 H     1.431429    -5.043731    -4.869785
 H     4.400119    -3.633536    -0.612637
 O     4.677569    -2.903948    -0.015752
 H     3.925321    -2.266240    -0.018890
 H    -0.203464     3.035334    -0.773561
 O    -0.946423     2.686148    -1.294031
 H    -1.652910     3.351823    -1.161250
 H     1.768429     4.302707     1.773321
 O     2.203838     4.405337     2.639222
 H     1.988390     3.604221     3.141934
 H     3.652812     1.050918     1.802035
 O     2.869715     0.480141     1.927368
 H     2.103548     1.072989     2.053377
 H     3.098471    -3.965546    -2.088531
 O     3.781402    -4.612544    -1.784240
 H     4.476558    -4.602837    -2.460885
 H     4.988447    -3.742783    -4.486972
 O     5.401894    -3.463490    -3.633808
 H     5.008015    -2.604457    -3.377646
 H    -1.073515     4.993161     2.284457
 O    -1.224935     5.574202     1.502576
 H    -1.853676     5.105397     0.895488
 H    -5.674336     3.241868     0.484369
 O    -5.198408     3.757698    -0.194221
 H    -5.632193     4.624972    -0.331365
 H     4.857665    -4.043090     2.952139
 O     4.121246    -3.834484     2.371280
 H     4.478585    -3.525697     1.508250
 H     5.756752    -1.445569     1.471031
 O     5.372588    -0.546785     1.480401
 H     6.164466     0.019691     1.562574
 H     1.541802    -6.629466    -3.180471
 O     1.379105    -6.815603    -4.130387
 H     2.262084    -6.891508    -4.521065
 H    -7.308538    -3.536667     0.540136
 O    -8.271182    -3.509081     0.316879
 H    -8.747454    -3.335819     1.157971
 H     3.097442    -2.582147     2.832314
 O     2.418760    -1.908107     3.025369
 H     2.665554    -1.091401     2.554881
 H    -2.022782     2.539950     5.173556
 O    -2.733074     3.190534     5.325600
 H    -3.490423     2.687026     5.679744
 H    -0.922086     0.777057     4.037368
 O    -0.811455     1.302125     4.861694
 H     0.037894     1.745503     4.761811
 H     0.448859     3.636118    -6.766778
 O     1.397723     3.418556    -6.635593
 H     1.394546     2.554802    -6.180525
 H     6.960731    -3.129212     4.809569
 O     6.209765    -3.553789     4.330313
 H     5.399073    -3.200771     4.768210
 H     7.952154     1.295338     1.659809
 O     7.847050     0.360011     1.917842
 H     8.339272    -0.182762     1.274136
 H    -4.012642    -0.294273    -4.728223
 O    -4.933895    -0.308916    -5.085940
 H    -4.894479     0.093152    -5.975154
 H     6.440805    -1.462118    -2.036061
 O     6.826049    -1.954129    -1.305721
 H     6.077975    -2.233205    -0.744622
 H     4.556163    -1.056106     4.546012
 O     4.990676    -0.304623     4.109031
 H     4.958091    -0.438480     3.137805
 H    -0.062205     3.203923     3.023333
 O    -0.688708     3.857411     3.394307
 H    -0.395310     4.084125     4.297943
 H     8.206654    -1.335247    -0.538473
 O     8.989240    -0.988672    -0.055519
 H     9.679571    -1.660627    -0.138787
 H     9.468636    -4.030107     2.268131
 O     9.196374    -3.809711     1.350980
 H     9.976833    -3.639100     0.812447
 H    -2.558285    -2.690353     3.746447
 O    -3.166004    -2.744331     2.999238
 H    -2.686238    -2.398380     2.204879
 H    -2.031386     0.995514    -6.258879
 O    -2.647172     1.754220    -6.289278
 H    -2.918460     1.912780    -5.361097
 H    -1.074168     4.020828    -5.371615
 O    -1.175989     4.018780    -6.352092
 H    -1.773372     3.270768    -6.531796
 H    -4.698857    -6.134034    -1.415578
 O    -5.168731    -5.391746    -1.006815
 H    -5.920859    -5.187037    -1.603055
 H     2.593129    -5.788399    -1.585303
 O     1.778043    -6.327573    -1.535258
 H     1.021162    -5.689689    -1.420224
 H     3.323044    -4.132837    -5.665582
 O     4.288922    -4.133414    -5.910520
 H     4.428572    -3.378028    -6.488101
 H     7.455923     3.272503     2.363368
 O     7.388677     2.943091     1.458293
 H     6.454957     2.629600     1.373949
 H     6.536071    -3.973223     0.395004
 O     7.016291    -4.784774     0.160161
 H     7.897563    -4.648491     0.560622
 H    -7.533509    -4.232308    -2.733175
 O    -7.323663    -5.171892    -2.535107
 H    -7.964535    -5.454934    -1.855049
 H    -4.421133     6.686197     5.069819
 O    -3.534595     6.344324     4.847123
 H    -3.073910     6.105188     5.665877
 H     7.180936     3.282136     5.127610
 O     7.193268     2.908194     4.236883
 H     7.429552     1.967772     4.349595
 H    -5.972613     0.764308     6.865481
 O    -6.756881     0.225964     7.122209
 H    -6.492326    -0.695710     6.965109
 H    -0.505630    -4.764983    -3.030502
 O    -0.649873    -4.637104    -3.985795
 H    -1.247698    -5.330395    -4.293846
 H     6.586716     0.002133     4.518395
 O     7.560292     0.179373     4.502972
 H     7.794842     0.162804     3.548037
 H     4.769273    -6.582867    -3.938691
 O     4.089131    -6.729722    -4.630994
 H     4.239680    -6.042673    -5.288775
 H    -5.846514    -1.631918    -5.399808
 O    -6.470817    -2.382601    -5.548845
 H    -7.310933    -1.940283    -5.836452
 H    -7.819211     0.574930     5.894860
 O    -8.358632     0.938088     5.147447
 H    -8.969846     1.562920     5.541109
 H    -5.223495     5.747923     2.379666
 O    -5.440556     6.671312     2.137532
 H    -4.576180     7.132453     2.153400
 H     5.896956     1.668453    -3.807332
 O     6.078192     0.873649    -4.365999
 H     5.446837     0.973941    -5.091921
 H    -5.807983     6.528656     0.471853
 O    -5.815900     6.332344    -0.488349
 H    -4.915230     6.565395    -0.798156
 H    -0.329648    -7.345641    -3.340169
 O    -1.046653    -7.479226    -2.709393
 H    -0.672683    -7.854941    -1.903691
 H    -2.706619    -1.730985     5.445411
 O    -2.068017    -2.471278     5.579867
 H    -1.232533    -2.022950     5.810320
 H     7.459932    -4.560986    -1.483602
 O     7.599534    -4.524336    -2.454139
 H     6.842145    -4.022432    -2.802077
 H    -8.820224    -2.696305    -3.535943
 O    -7.905756    -2.639149    -3.175498
 H    -7.340581    -2.435068    -3.936128
 H     8.812278    -3.348257    -2.776032
 O     9.459251    -2.628767    -2.933835
 H     8.968675    -1.793804    -2.826233
 H    -5.106174    -4.775578    -3.813446
 O    -5.058808    -3.817376    -3.655228
 H    -5.556844    -3.395930    -4.366467
 H    -3.544029     4.169073    -3.453245
 O    -3.249959     5.007819    -3.062092
 H    -3.513946     5.726878    -3.637348
 H    -0.116624     4.864592    -3.874205
 O    -0.788566     4.178173    -3.714086
 H    -1.573293     4.623596    -3.335811
 H    -2.157168    -4.218018     5.221467
 O    -2.454951    -5.064150     4.852114
 H    -3.380146    -4.898709     4.599401
 H    -2.230166     8.526144    -3.517198
 O    -2.446051     7.581290    -3.655859
 H    -2.229577     7.369194    -4.590443
 H    -2.982981     7.252924     3.419758
 O    -2.886055     7.475063     2.478523
 H    -2.290253     6.786151     2.119482
 H     4.703373     1.353071     4.370206
 O     4.565286     2.314730     4.228166
 H     5.449432     2.669607     4.016877
 H     7.678662    -2.072209     6.397328
 O     8.136121    -2.253008     5.553005
 H     8.116265    -1.390957     5.092131
 H     5.792693    -1.838899     7.877313
 O     6.513528    -1.315526     7.513243
 H     6.075778    -0.544139     7.088686
 H    -1.542648     5.858157    -6.297791
 O    -1.667897     6.795204    -6.082425
 H    -0.788840     7.209342    -6.146288
 H    -8.313938    -0.190954     3.796167
 O    -8.119903    -0.707225     3.001184
 H    -7.223074    -1.070861     3.111786
 H    -8.550070     0.249720     0.047903
 O    -8.587503     0.869089     0.795588
 H    -8.585973     0.301863     1.585456
 H     0.661617    -0.737030     5.938492
 O    -0.184018    -0.813279     6.439414
 H    -0.668754    -0.023998     6.141386
 H    -0.358680     7.056231    -1.432836
 O    -0.302129     6.696329    -2.340803
 H    -1.144282     6.920287    -2.796875
 H     0.422728    -8.055631     0.397565
 O    -0.481462    -8.282304     0.131469
 H    -0.952888    -8.362702     0.988966
 H     1.902555     2.477395     5.391755
 O     1.928879     2.222365     4.445234
 H     2.875427     2.238623     4.213503
 H    -7.965218    -5.229536    -5.811167
 O    -7.059475    -5.090986    -6.133500
 H    -6.893309    -4.142983    -6.048770
 H     2.877380    -7.661031     0.944048
 O     1.997316    -7.280257     0.890216
 H     1.940243    -6.918157    -0.031388
 H     3.579289     5.839370    -7.230447
 O     3.737427     4.883928    -7.406179
 H     2.887300     4.461741    -7.189520
 H    -0.460583     6.960148     0.733242
 O    -0.131708     7.677128     0.165149
 H    -0.797699     8.377076     0.222104
 H     4.337428     3.425426     5.453151
 O     4.244361     4.053831     6.209541
 H     5.118207     4.091975     6.607338
 H     7.496284     2.481360     7.082328
 O     6.982292     3.329780     7.019085
 H     7.468734     3.969181     7.538210
 H     3.923980    -8.044421    -1.133033
 O     4.436892    -7.535816    -0.483701
 H     4.901551    -6.880912    -1.029594
 H     6.652238    -5.982464    -2.670033
 O     5.874538    -6.571103    -2.654545
 H     6.197629    -7.488655    -2.604674
 H    -9.126581    -2.074901     2.778370
 O    -9.618066    -2.879102     2.508254
 H    -10.337859    -2.547537     1.944864
 H    -2.605297     8.744950     1.226146
 O    -2.438951     9.123931     0.346961
 H    -3.223110     9.701877     0.175129
 H     7.903887     0.310953     7.577688
 O     8.268595     1.018056     7.034458
 H     8.135282     0.718973     6.118298
 H    -2.499352     4.925183     7.786031
 O    -2.195751     5.163528     6.911258
 H    -2.386585     4.376136     6.318712
 H    -6.353558    -6.222610    -3.604078
 O    -5.673471    -6.409828    -4.276620
 H    -6.091711    -6.094724    -5.106878
 H     6.645954    -2.980925     2.784185
 O     6.793104    -2.698013     1.862407
 H     7.742789    -2.783629     1.693720
 H     2.408920     6.678359    -0.562635
 O     2.660879     7.398716     0.057876
 H     1.814909     7.739245     0.373807
 H    -4.276038    -7.207160    -3.139259
 O    -3.732182    -7.281944    -2.346719
 H    -2.817088    -7.408324    -2.655910
 H     1.067714     6.833518    -5.389823
 O     0.918210     7.719795    -5.794738
 H     0.927998     8.331268    -5.029286
 H    -8.301371    -1.464918    -1.851667
 O    -8.608977    -1.216061    -0.966206
 H    -8.403274    -2.022077    -0.440988
 H    -3.152339     7.216084    -2.027472
 O    -3.273829     7.012666    -1.090304
 H    -2.969686     7.797295    -0.587576
 H     2.658793    -4.681121     2.290470
 O     1.738491    -5.009689     2.267579
 H     1.790857    -5.889480     1.840437
 H    -8.764161    -0.483876    -5.197688
 O    -8.666899    -1.040573    -6.005325
 H    -8.356647    -0.426592    -6.694138
 H     7.664210    -0.062225    -3.734083
 O     8.275858    -0.103854    -2.978575
 H     8.975366     0.543926    -3.175477
 H     4.282050     6.595925     0.224713
 O     4.984921     5.954677     0.033023
 H     4.518833     5.131638    -0.234766
 H    -7.919960     0.359972    -3.337854
 O    -8.808043     0.400891    -3.749272
 H    -9.430062     0.156942    -3.062434
 H     6.211057     3.779699    -3.009122
 O     5.715295     2.994226    -2.710120
 H     6.282876     2.541732    -2.043065
 H    -1.484186    -6.908996    -0.081794
 O    -2.083742    -6.153366    -0.249039
 H    -2.666908    -6.430115    -0.962454
 H    -4.140680    -7.767144     0.735214
 O    -4.383768    -7.531653     1.633619
 H    -4.155355    -6.576034     1.728576
 H    -3.009528    -5.085654     1.007959
 O    -3.733618    -4.973267     1.645115
 H    -3.451862    -4.277123     2.272817
 H     5.014207    -6.427961     4.789850
 O     4.275630    -6.158441     4.240588
 H     4.590798    -6.229514     3.323932
 H    -9.615939    -5.952218    -4.231019
 O    -9.604269    -5.469319    -5.089280
 H    -10.240155    -5.915071    -5.649264
 H     6.121491    -5.812611     1.221456
 O     5.586447    -6.410312     1.783533
 H     5.135825    -6.977203     1.146384
 H    -1.570375    -6.805783     2.394097
 O    -1.728241    -7.764677     2.419331
 H    -2.690074    -7.872103     2.389000
 H    -10.074377    -3.763897    -4.764407
 O    -10.194353    -2.843467    -4.475773
 H    -9.936206    -2.277636    -5.216044
 H     0.618190     8.015879    -2.992715
 O     0.960709     8.855190    -3.365403
 H     1.855722     8.971205    -2.983405
 H    -9.209463    -7.747250    -2.885740
 O    -9.785609    -6.981413    -2.880223
 H    -9.678962    -6.572291    -2.002396
 H     1.948600     0.480660     4.672196
 O     2.020096    -0.384036     5.119642
 H     2.236307    -1.049371     4.432459
 H    -6.414385     0.682791    -7.682572
 O    -7.374530     0.781497    -7.574278
 H    -7.521323     1.678033    -7.270242
 H     6.306552     3.439391    -6.555747
 O     5.591959     3.788160    -5.968151
 H     4.995344     4.355136    -6.526389
 H    -5.231324     10.336507     0.842129
 O    -4.721365     10.370621     0.021744
 H    -5.300667     9.913129    -0.619138
 H    -0.731967    -0.971189    -5.761537
 O    -0.868784    -0.294814    -6.460109
 H    -0.075900     0.269379    -6.373473
 H     4.849147    -0.413311    -6.922327
 O     4.900920    -1.354440    -6.698393
 H     5.795399    -1.497338    -6.330622
 H     2.405418    -8.829280    -2.765917
 O     3.362975    -8.774688    -2.738510
 H     3.616664    -8.173096    -3.454111
 H    -4.103929    -0.182146    -7.939343
 O    -4.608532     0.571460    -7.597098
 H    -3.926117     1.192545    -7.254058
 H     1.209143     3.523865     6.836534
 O     1.940811     2.911724     7.047613
 H     2.764899     3.424922     6.956954
 H    -11.416524    -2.471667    -0.266264
 O    -11.002691    -1.859014     0.341984
 H    -10.252866    -1.466598    -0.139167
 H    -7.593643     1.913962     7.525820
 O    -8.051622     2.763740     7.453695
 H    -8.184624     3.080448     8.346603
 H     6.034284    -9.136482    -1.214216
 O     6.136694    -9.232913    -2.166019
 H     5.255294    -9.435710    -2.503649
 H     6.663362     5.126232    -0.465085
 O     7.299027     4.459160    -0.743936
 H     7.462736     3.903605     0.044960
 H    -5.579902    -2.922940     5.690015
 O    -5.596313    -2.175341     6.327587
 H    -4.989036    -2.455939     7.034012
 H     2.423869     1.237026     7.608661
 O     2.879967     0.388953     7.511615
 H     2.572756     0.029088     6.652950
 H    -2.946379    -2.993638     6.959541
 O    -3.454903    -3.139908     7.786342
 H    -2.843922    -2.838502     8.474357
 H     5.617158     1.761535     6.887416
 O     5.322361     0.899283     6.588917
 H     4.426182     0.753507     6.958191
 H     1.781565    -4.503498     4.100346
 O     2.246180    -4.469245     4.948987
 H     2.935958    -5.150971     4.864719
 H     10.386117    -2.861329    -1.589470
 O     10.862527    -2.900563    -0.715905
 H     11.796801    -2.881120    -0.916041
 H     4.036422     8.269612    -2.538368
 O     3.356915     8.846144    -2.167072
 H     3.157084     8.477298    -1.287245
 H    -8.305725    -6.354311     0.082899
 O    -8.932096    -5.907318    -0.509278
 H    -8.869500    -4.965796    -0.214747
 H    -0.545572     9.747893    -2.982554
 O    -1.485695     9.923844    -2.787956
 H    -1.571851     10.020382    -1.837037
 H     4.228382     4.022045    -3.525242
 O     3.688732     4.818708    -3.535796
 H     4.259479     5.577810    -3.294013
 H     5.280160     6.536962    -1.632917
 O     5.233283     6.772757    -2.579467
 H     6.017106     6.409240    -3.013615
 H    -0.483137     5.027801     6.258886
 O     0.238635     4.548884     5.827595
 H     0.946821     5.187134     5.570234
 H     3.127580     5.372706     5.409822
 O     2.380570     5.835911     5.002402
 H     2.343790     5.528466     4.082757
 H    -7.073783     9.084054    -0.053323
 O    -6.766971     8.877249    -0.945928
 H    -6.550220     7.928290    -0.935661
 H    -1.502434    -5.109123     3.476783
 O    -1.034264    -5.004911     2.617119
 H    -0.122115    -5.286188     2.727399
 H     4.020233    -2.375857     6.330258
 O     4.039431    -2.506294     5.357919
 H     3.319750    -3.137767     5.153694
 H     6.904091    -6.367262     3.228869
 O     7.267636    -6.028898     4.056788
 H     6.803787    -5.185775     4.218043
 H     8.827872    -5.082027     4.045259
 O     9.474942    -4.359262     3.941102
 H     9.205848    -3.668975     4.559588
 H     3.316755     8.078831    -7.723477
 O     3.294269     7.507869    -6.957301
 H     2.418569     7.662839    -6.526226
 H    -0.834275    -1.513627     8.114765
 O    -1.067403    -2.162616     8.793396
 H    -0.366912    -2.820529     8.767492
 H     8.444638     4.391085    -1.914233
 O     9.143071     4.418938    -2.617525
 H     9.864417     4.916391    -2.232613
 H     6.477726     4.703273    -4.792417
 O     6.838138     5.083454    -3.952694
 H     7.798614     4.976609    -3.961812
 H     10.903076     2.197079    -3.693136
 O     10.098700     2.006858    -3.200804
 H     9.681998     2.891358    -3.047758
 H     2.894870    -2.676386     7.950966
 O     3.735052    -2.178883     7.984431
 H     3.470560    -1.251015     8.078213
 H    -2.291169    -1.737312    -8.820337
 O    -2.713060    -1.417452    -8.023889
 H    -2.012836    -0.986820    -7.487079
 H     5.110791     5.259841     1.837336
 O     4.879344     4.690069     2.581887
 H     3.908615     4.729048     2.660393
 H    -3.776183    -6.145753    -4.997727
 O    -2.959450    -5.644131    -5.048940
 H    -3.165672    -4.851533    -5.569384
 H    -6.617516     6.137706     4.991310
 O    -6.162997     6.961711     4.736156
 H    -6.010798     6.899227     3.767089
 H    -7.568326     4.092796     6.140659
 O    -7.283827     4.537954     5.332576
 H    -7.036289     3.821280     4.726058
 H    -7.207134     9.533882     2.588890
 O    -6.939547     9.941796     1.739916
 H    -7.393943     10.784036     1.699949
 H    -6.139668    -6.904387     1.470698
 O    -6.734792    -6.255187     1.064377
 H    -6.176053    -5.805316     0.394915
 H    -4.045363    -4.837763     7.495061
 O    -4.283160    -5.668030     7.044505
 H    -3.486297    -5.941533     6.575496
 H     9.534473     0.675493    -0.277750
 O     9.602514     1.634606    -0.436132
 H     9.930519     1.721206    -1.337444
 H    -8.128483    -4.168752     3.054949
 O    -7.206960    -4.446962     3.071003
 H    -7.073305    -5.072752     2.330463
 H     0.838464    -2.492487     6.928387
 O     1.319023    -3.248790     7.282150
 H     1.539426    -3.806170     6.519402
 H    -3.371716    -2.684283    -6.903987
 O    -3.807365    -3.319325    -6.316658
 H    -4.751969    -3.171144    -6.414658
 H    -8.688247     8.405481     3.941249
 O    -7.891991     8.922506     4.072083
 H    -7.231644     8.308287     4.456779
 H     8.060700    -2.321063    -5.076709
 O     7.157706    -1.984545    -5.110772
 H     6.655713    -2.606016    -4.540674
 H    -5.123470    -4.983867     5.627010
 O    -5.143776    -4.381848     4.857479
 H    -5.899179    -4.606463     4.295299
 N     7.678261     2.225929    -6.980858
 H     7.491414     1.645515    -7.792153
 H     7.655539     1.629048    -6.156410
 H     8.618209     2.593323    -7.080417
