604
grain_mol50 // -1574.408770237473 // -39.9914505439 // -591.611067241374 // -1022.78915354 // -0.0346327885 // -0.582835030082 // -0.009173681512
 H    -1.881309    -0.057467     2.468478
 O    -0.906519    -0.011927     2.572562
 H    -0.624725    -0.893522     2.913141
 H    -0.349553    -1.872930    -2.814723
 O    -0.447176    -1.882591    -1.849865
 H    -1.400628    -1.802390    -1.680518
 H    -2.833044     1.808847     0.803082
 O    -2.709082     1.160768     0.089440
 H    -1.916109     1.451277    -0.396753
 H    -3.735024     1.853114    -3.091226
 O    -3.208185     2.198701    -3.849336
 H    -2.313949     2.348499    -3.525155
 H    -0.122942    -0.617297    -0.760362
 O    -0.024766     0.122063    -0.129612
 H    -0.467894    -0.162150     0.680484
 H     1.050722    -1.935899    -4.709586
 O     0.111822    -2.131722    -4.551949
 H     0.035494    -3.097194    -4.579141
 H    -4.986727     2.327250    -1.382864
 O    -4.598934     1.502558    -1.734975
 H    -3.934998     1.243455    -1.052612
 H    -3.702543     3.360665     2.409109
 O    -2.965846     2.750013     2.214110
 H    -2.210751     3.112125     2.713241
 H     2.578186     0.287630    -2.845577
 O     1.971669    -0.348300    -2.412635
 H     1.069862    -0.054886    -2.644874
 H    -1.100626     0.284971    -3.590231
 O    -0.309233     0.780239    -3.293838
 H    -0.583885     1.382363    -2.582868
 H     2.624271    -0.513163     0.675063
 O     2.557361    -1.269437     0.056484
 H     2.309877    -0.901775    -0.813767
 H    -2.871700    -0.500148    -0.616944
 O    -2.981597    -0.974709    -1.451633
 H    -3.779188    -1.530951    -1.387716
 H     2.776872     1.308421    -0.713438
 O     1.946756     1.809187    -0.620962
 H     1.238097     1.151816    -0.457143
 H     0.554591     3.173998    -3.222551
 O     1.469910     3.009241    -2.961137
 H     1.460336     2.556538    -2.098269
 H     0.151869    -3.976892    -0.461885
 O    -0.053767    -4.677280    -1.121615
 H    -0.840282    -5.135540    -0.746871
 H    -6.389587     2.101599     2.877262
 O    -6.474078     2.315215     3.843442
 H    -7.224794     1.780930     4.169563
 H     1.117322    -3.669310     1.411959
 O     0.708970    -3.036556     0.793388
 H     1.385195    -2.371767     0.549871
 H    -2.989092     5.189089    -1.093082
 O    -2.810310     4.401890    -0.545103
 H    -3.697373     4.024505    -0.369361
 H    -5.572907    -1.309116     1.604614
 O    -5.292745    -0.678259     0.907603
 H    -5.373225    -1.150455     0.073443
 H    -0.413878    -3.149843     3.108521
 O    -0.126469    -2.329067     3.543143
 H     0.820875    -2.218794     3.359041
 H     5.216364     1.103879    -1.020043
 O     4.432245     0.571165    -0.825614
 H     4.648980     0.174059     0.046963
 H     0.630842     2.438153     1.076426
 O     0.604982     2.112833     1.985609
 H     0.003832     1.347098     2.031163
 H     4.468630    -0.448954    -2.181317
 O     4.699023    -0.945942    -2.997144
 H     5.194961    -0.302622    -3.550913
 H     2.984885     3.308247    -0.926251
 O     3.856283     3.723231    -0.883620
 H     4.367606     3.430357    -1.663429
 H    -5.852233    -1.585666    -1.985537
 O    -5.324681    -2.272164    -1.522431
 H    -5.213095    -2.996568    -2.162140
 H    -4.931164    -4.096900     1.212418
 O    -5.620493    -3.479394     0.903810
 H    -5.371666    -3.205088     0.010924
 H     2.728321     2.158512    -3.589256
 O     3.412835     1.481190    -3.763911
 H     3.518652     1.431819    -4.719809
 H    -5.340498     3.848274     3.600139
 O    -4.764947     4.437042     3.100587
 H    -4.260902     4.985541     3.739051
 H     0.700995     0.970993    -4.687169
 O     1.210914     0.849352    -5.514034
 H     1.825693     0.108422    -5.329057
 H     0.968084     5.791003    -2.297604
 O     1.753524     5.482111    -1.814667
 H     2.329649     5.032520    -2.464545
 H    -2.740960    -3.523254    -1.776082
 O    -2.908963    -3.764756    -0.849360
 H    -3.666130    -4.366853    -0.830874
 H     2.081821     5.154814    -4.513641
 O     1.215962     5.226859    -4.952007
 H     1.230349     4.520315    -5.625419
 H     7.728104     1.931698    -0.729745
 O     6.956134     1.553695    -1.189865
 H     7.331766     0.870193    -1.777465
 H     4.415259     2.861123     0.452536
 O     4.734211     2.519153     1.312967
 H     4.636283     3.276106     1.927245
 H     1.116753    -3.171142    -2.079463
 O     1.984132    -3.014466    -2.480348
 H     2.060992    -2.037935    -2.525061
 H     1.097492     4.630244    -0.586790
 O     0.627684     4.163407     0.141191
 H    -0.066400     4.768116     0.458832
 H    -5.827470     0.944465     1.126171
 O    -6.328995     1.767647     1.293318
 H    -7.252236     1.514814     1.036780
 H    -2.287471    -2.656629     0.271990
 O    -1.833697    -2.071317     0.908333
 H    -0.920357    -2.401729     0.931228
 H    -3.818177    -0.345225     4.219755
 O    -3.832754    -0.466164     5.196717
 H    -4.584675    -1.052194     5.441173
 H    -6.142560    -2.910316     3.140880
 O    -5.712406    -2.043633     3.229055
 H    -4.756865    -2.256746     3.252537
 H    -2.823015    -0.466448    -3.028330
 O    -2.537974    -0.539481    -3.966478
 H    -2.364203    -1.505053    -4.027926
 H    -3.347079    -3.477847    -3.730453
 O    -2.498554    -3.081802    -3.470438
 H    -1.791393    -3.710550    -3.715654
 H     3.300113    -1.152846    -4.144559
 O     2.765375    -1.293170    -4.949241
 H     3.419552    -1.450988    -5.652994
 H     4.760594     2.339847    -6.494439
 O     4.233604     1.515814    -6.514919
 H     3.405950     1.741885    -6.946848
 H    -4.376770     0.967440     5.703656
 O    -4.876445     1.789235     5.944108
 H    -5.425055     1.995449     5.160373
 H    -4.037513    -0.125730     1.940827
 O    -3.521769     0.203638     2.696653
 H    -3.449951     1.175441     2.605663
 H    -5.792314     0.478234    -2.355951
 O    -6.314332    -0.199237    -2.833572
 H    -5.864611    -0.298333    -3.695032
 H     2.001371    -3.826678    -4.012959
 O     1.972532    -4.298081    -4.868491
 H     1.573172    -5.161344    -4.675376
 H     4.494886    -3.498119    -0.478421
 O     4.749734    -2.738856     0.091206
 H     3.979705    -2.123135     0.061753
 H    -0.305449     3.018234    -0.899520
 O    -1.037627     2.626537    -1.404708
 H    -1.763465     3.275989    -1.298798
 H     1.625459     4.443937     1.594597
 O     2.056929     4.593266     2.455787
 H     1.864814     3.806363     2.989381
 H     3.606207     1.253698     1.750465
 O     2.840859     0.665074     1.899973
 H     2.056877     1.239100     2.001443
 H     3.204937    -3.927454    -1.936558
 O     3.908681    -4.540839    -1.610372
 H     4.605274    -4.525734    -2.286538
 H     5.095368    -3.741275    -4.328115
 O     5.491126    -3.437815    -3.473639
 H     5.064811    -2.574460    -3.281896
 H    -1.236902     5.067988     2.079294
 O    -1.405187     5.613213     1.275479
 H    -2.018779     5.102199     0.687143
 H    -5.781478     3.110009     0.351079
 O    -5.320563     3.612690    -0.347374
 H    -5.779988     4.460493    -0.518660
 H     4.962619    -3.752031     3.100229
 O     4.220362    -3.590372     2.511999
 H     4.567866    -3.304383     1.636961
 H     5.784230    -1.189973     1.517742
 O     5.374006    -0.303283     1.493134
 H     6.148354     0.289511     1.552536
 H     1.731801    -6.677170    -2.923980
 O     1.575557    -6.908476    -3.864967
 H     2.460038    -6.969156    -4.254472
 H    -7.211240    -3.707409     0.673805
 O    -8.174104    -3.717720     0.450046
 H    -8.656075    -3.525725     1.283773
 H     3.159145    -2.351143     2.923203
 O     2.460651    -1.690683     3.090328
 H     2.682737    -0.886094     2.587636
 H    -2.114412     2.702950     5.062898
 O    -2.843988     3.337380     5.189795
 H    -3.586242     2.825620     5.563483
 H    -0.960418     0.930666     3.996748
 O    -0.866153     1.490642     4.799928
 H    -0.030645     1.955375     4.682060
 H     0.339342     3.403536    -6.913378
 O     1.293396     3.220794    -6.767752
 H     1.311602     2.373463    -6.283050
 H     7.035082    -2.703219     4.920337
 O     6.298070    -3.169324     4.458315
 H     5.476373    -2.823840     4.881828
 H     7.895113     1.622780     1.598025
 O     7.819823     0.695414     1.893087
 H     8.326652     0.143435     1.268393
 H    -4.009911    -0.577314    -4.718894
 O    -4.930028    -0.633913    -5.075439
 H    -4.901722    -0.265950    -5.979823
 H     6.477404    -1.322975    -1.980127
 O     6.872473    -1.780918    -1.232602
 H     6.129396    -2.055100    -0.662776
 H     4.569670    -0.715310     4.575502
 O     4.982666     0.030757     4.109398
 H     4.954391    -0.141640     3.144071
 H    -0.172834     3.340370     2.887315
 O    -0.818930     3.988653     3.232984
 H    -0.532977     4.259468     4.126751
 H     8.233350    -1.088738    -0.496856
 O     9.000242    -0.692616    -0.025337
 H     9.711979    -1.345821    -0.045605
 H     9.561791    -3.634745     2.426033
 O     9.291242    -3.460726     1.497999
 H     10.074773    -3.269960     0.970447
 H    -2.491426    -2.593074     3.842881
 O    -3.096613    -2.694936     3.098646
 H    -2.626852    -2.366260     2.291008
 H    -2.066651     0.710537    -6.299939
 O    -2.705671     1.447983    -6.359829
 H    -2.981792     1.635131    -5.438532
 H    -1.201410     3.795301    -5.532771
 O    -1.301749     3.751827    -6.512193
 H    -1.876399     2.980089    -6.662746
 H    -4.523083    -6.300089    -1.179008
 O    -5.015501    -5.556932    -0.799432
 H    -5.772761    -5.398269    -1.403188
 H     2.755507    -5.741664    -1.365400
 O     1.957565    -6.303413    -1.292436
 H     1.181230    -5.684788    -1.202685
 H     3.446892    -4.224289    -5.506238
 O     4.411972    -4.205747    -5.751613
 H     4.525723    -3.465452    -6.354686
 H     7.340904     3.608570     2.220689
 O     7.284228     3.240657     1.329790
 H     6.359654     2.897360     1.258888
 H     6.639014    -3.733720     0.539102
 O     7.145110    -4.537696     0.333830
 H     8.019730    -4.361127     0.733382
 H    -7.412250    -4.537700    -2.569615
 O    -7.174597    -5.462085    -2.334641
 H    -7.807327    -5.737082    -1.643793
 H    -4.636127     6.767959     4.797015
 O    -3.739520     6.444326     4.587790
 H    -3.272566     6.251592     5.415153
 H     7.063057     3.719197     4.984025
 O     7.088077     3.310970     4.108740
 H     7.351688     2.383175     4.258662
 H    -6.010717     0.877434     6.824549
 O    -6.778617     0.326275     7.102751
 H    -6.486434    -0.592492     6.981765
 H    -0.371412    -4.870223    -2.847461
 O    -0.518200    -4.785300    -3.807112
 H    -1.095606    -5.507238    -4.087016
 H     6.567849     0.401130     4.505479
 O     7.535872     0.606299     4.482944
 H     7.771421     0.560254     3.529249
 H     4.955844    -6.559308    -3.686596
 O     4.285091    -6.758707    -4.374089
 H     4.408393    -6.088987    -5.055234
 H    -5.801926    -1.994774    -5.336751
 O    -6.403436    -2.769190    -5.455655
 H    -7.256044    -2.363872    -5.760460
 H    -7.849967     0.594529     5.862838
 O    -8.399485     0.911539     5.101935
 H    -9.029320     1.532977     5.470843
 H    -5.407612     5.700958     2.145977
 O    -5.652087     6.607275     1.868207
 H    -4.801859     7.094305     1.865348
 H     5.799133     1.686817    -3.858723
 O     6.064920     0.900801    -4.376474
 H     5.600283     0.966993    -5.212250
 H    -6.013452     6.388250     0.209192
 O    -6.014811     6.154023    -0.742455
 H    -5.121301     6.401578    -1.061748
 H    -0.117716    -7.454417    -3.055495
 O    -0.830979    -7.585463    -2.419977
 H    -0.446513    -7.916966    -1.599962
 H    -2.670097    -1.572630     5.502744
 O    -2.009617    -2.287468     5.666397
 H    -1.188221    -1.805378     5.878557
 H     7.597624    -4.388945    -1.300305
 O     7.775336    -4.384188    -2.270868
 H     6.996338    -3.915804    -2.640135
 H    -8.743957    -3.073771    -3.431581
 O    -7.831952    -2.975290    -3.073875
 H    -7.272443    -2.784190    -3.842081
 H     8.985872    -3.144614    -2.476191
 O     9.690542    -2.467709    -2.633661
 H     9.206915    -1.613247    -2.694510
 H    -4.968823    -5.049828    -3.628354
 O    -4.950650    -4.085242    -3.507669
 H    -5.460222    -3.707090    -4.234923
 H    -3.676064     3.945011    -3.620858
 O    -3.409113     4.807072    -3.262280
 H    -3.692551     5.494458    -3.866312
 H    -0.271248     4.725537    -4.070147
 O    -0.922616     4.026516    -3.881470
 H    -1.720390     4.463534    -3.521396
 H    -2.046032    -4.048753     5.376751
 O    -2.317837    -4.917460     5.041300
 H    -3.247299    -4.789981     4.782262
 H    -2.493864     8.333681    -3.856656
 O    -2.681142     7.378039    -3.957515
 H    -2.457394     7.135664    -4.883179
 H    -3.214090     7.312244     3.125514
 O    -3.123264     7.500026     2.176261
 H    -2.506738     6.815782     1.844196
 H     4.645162     1.688028     4.304467
 O     4.478529     2.638853     4.125158
 H     5.351476     3.011567     3.898898
 H     7.719769    -1.563552     6.464534
 O     8.183429    -1.763593     5.627896
 H     8.137568    -0.921245     5.133458
 H     5.826396    -1.328910     7.934647
 O     6.531719    -0.799190     7.549934
 H     6.071469    -0.058397     7.095598
 H    -1.724424     5.580477    -6.530255
 O    -1.878219     6.520835    -6.350700
 H    -1.012022     6.958535    -6.432234
 H    -8.319551    -0.267855     3.796014
 O    -8.109435    -0.809078     3.021998
 H    -7.202118    -1.140805     3.146460
 H    -8.565530     0.017809     0.033379
 O    -8.622324     0.664588     0.756222
 H    -8.604318     0.129103     1.567730
 H     0.666455    -0.459176     5.955344
 O    -0.176848    -0.541025     6.459278
 H    -0.684871     0.220909     6.130331
 H    -0.581231     7.003988    -1.716276
 O    -0.513073     6.610027    -2.609059
 H    -1.360781     6.790883    -3.073999
 H     0.652392    -7.993955     0.707006
 O    -0.244068    -8.258657     0.450219
 H    -0.713981    -8.318722     1.310268
 H     1.810979     2.767082     5.282274
 O     1.845697     2.475593     4.346649
 H     2.791374     2.511405     4.113749
 H    -7.811257    -5.667626    -5.605566
 O    -6.909751    -5.514969    -5.933307
 H    -6.772008    -4.559796    -5.886143
 H     3.093999    -7.504886     1.235952
 O     2.203028    -7.153083     1.167695
 H     2.135307    -6.828853     0.232672
 H     3.354849     5.676275    -7.376589
 O     3.524709     4.716443    -7.485932
 H     2.698662     4.255649    -7.272249
 H    -0.681747     6.989996     0.452057
 O    -0.373607     7.693863    -0.143359
 H    -1.060590     8.374985    -0.114425
 H     4.216177     3.789610     5.305261
 O     4.103832     4.444089     6.036483
 H     4.975929     4.524336     6.431796
 H     7.400834     3.005940     6.969023
 O     6.861723     3.835354     6.872487
 H     7.328193     4.509103     7.365855
 H     4.153068    -7.937241    -0.825129
 O     4.652234    -7.390326    -0.196468
 H     5.093367    -6.740095    -0.766489
 H     6.824938    -5.852414    -2.439542
 O     6.066223    -6.462565    -2.404411
 H     6.413654    -7.368358    -2.314766
 H    -9.074366    -2.213967     2.853386
 O    -9.541301    -3.042571     2.615346
 H    -10.270104    -2.755179     2.039395
 H    -2.879578     8.727526     0.874810
 O    -2.723686     9.076654    -0.018513
 H    -3.524638     9.623507    -0.212938
 H     7.872425     0.870193     7.549684
 O     8.216899     1.565523     6.978759
 H     8.092699     1.226845     6.075184
 H    -2.664706     5.173601     7.579777
 O    -2.367352     5.386427     6.696326
 H    -2.534058     4.571074     6.135124
 H    -6.172433    -6.524272    -3.361664
 O    -5.486572    -6.717770    -4.026528
 H    -5.913253    -6.447897    -4.868380
 H     6.716786    -2.645035     2.890701
 O     6.857346    -2.395944     1.958138
 H     7.809535    -2.460667     1.794512
 H     2.196302     6.743700    -0.832795
 O     2.426176     7.494788    -0.240665
 H     1.569938     7.822214     0.061246
 H    -4.066705    -7.426731    -2.859214
 O    -3.521498    -7.454371    -2.064537
 H    -2.602781    -7.564919    -2.368959
 H     0.854455     6.668744    -5.662469
 O     0.677630     7.533263    -6.101711
 H     0.669327     8.174575    -5.361398
 H    -8.263757    -1.761885    -1.797265
 O    -8.579646    -1.487997    -0.922156
 H    -8.350085    -2.266171    -0.365821
 H    -3.377577     7.055924    -2.316170
 O    -3.494031     6.886259    -1.371603
 H    -3.213689     7.698801    -0.900478
 H     2.783904    -4.482076     2.465020
 O     1.874098    -4.839191     2.455698
 H     1.953184    -5.732871     2.063114
 H    -8.752897    -0.927709    -5.179171
 O    -8.638431    -1.512640    -5.964256
 H    -8.345877    -0.917198    -6.676751
 H     7.748377    -0.251845    -3.789119
 O     8.264372    -0.058242    -2.980357
 H     8.842315     0.687708    -3.217565
 H     4.070423     6.748293    -0.043391
 O     4.792528     6.121620    -0.210627
 H     4.350977     5.274748    -0.444488
 H    -7.935991     0.013656    -3.354281
 O    -8.824666     0.011482    -3.766464
 H    -9.439540    -0.223674    -3.070201
 H     6.085103     3.873752    -3.157493
 O     5.607008     3.092076    -2.825450
 H     6.192519     2.666789    -2.156428
 H    -1.288018    -6.925200     0.183207
 O    -1.909958    -6.195242    -0.013162
 H    -2.483737    -6.516889    -0.715280
 H    -3.918040    -7.829611     1.033974
 O    -4.168424    -7.566707     1.922725
 H    -3.969235    -6.601564     1.979976
 H    -2.868397    -5.106720     1.200871
 O    -3.595877    -4.991448     1.833614
 H    -3.335782    -4.262783     2.433137
 H     5.188791    -6.057882     5.030476
 O     4.442743    -5.833188     4.471256
 H     4.760601    -5.929780     3.558001
 H    -9.440983    -6.376969    -3.997598
 O    -9.443036    -5.928195    -4.874233
 H    -10.064849    -6.414449    -5.416011
 H     6.280276    -5.549957     1.438778
 O     5.764463    -6.141271     2.024593
 H     5.330144    -6.745787     1.411165
 H    -1.379048    -6.727245     2.653079
 O    -1.508023    -7.688768     2.716030
 H    -2.466211    -7.826033     2.689899
 H    -9.964328    -4.225933    -4.616893
 O    -10.112388    -3.298971    -4.364548
 H    -9.870487    -2.755020    -5.126418
 H     0.368306     7.930138    -3.313053
 O     0.685165     8.764788    -3.717355
 H     1.576114     8.922429    -3.341191
 H    -8.981742    -8.104599    -2.582993
 O    -9.580970    -7.357061    -2.607233
 H    -9.487158    -6.910504    -1.746339
 H     1.917266     0.745889     4.641879
 O     2.014712    -0.098009     5.122984
 H     2.251003    -0.782963     4.462234
 H    -6.437128     0.210025    -7.708638
 O    -7.399930     0.284075    -7.603862
 H    -7.573600     1.187231    -7.335698
 H     6.291399     3.895948    -7.162356
 O     5.686242     3.838429    -6.423073
 H     4.840249     4.278326    -6.742512
 H    -5.552084     10.222961     0.429224
 O    -5.042494     10.240355    -0.391901
 H    -5.606941     9.740865    -1.014394
 H    -0.708680    -1.195476    -5.725543
 O    -0.866301    -0.551238    -6.449566
 H    -0.090077     0.038727    -6.387012
 H     4.685622    -0.395249    -6.847135
 O     4.834432    -1.338790    -6.676824
 H     5.696814    -1.370637    -6.195191
 H     2.661740    -8.831033    -2.423329
 O     3.617342    -8.746796    -2.400658
 H     3.851214    -8.165841    -3.139677
 H    -4.101459    -0.594282    -7.931906
 O    -4.629135     0.156254    -7.618928
 H    -3.965993     0.810908    -7.301156
 H     1.085169     3.848178     6.684791
 O     1.834801     3.267266     6.919950
 H     2.643059     3.801087     6.808553
 H    -11.348619    -2.798789    -0.172741
 O    -10.953969    -2.150661     0.410994
 H    -10.215832    -1.754999    -0.085366
 H    -7.666090     2.002833     7.439696
 O    -8.149476     2.834902     7.334470
 H    -8.292439     3.182411     8.214283
 H     6.295523    -8.967422    -0.864611
 O     6.403423    -9.096128    -1.812075
 H     5.529104    -9.338734    -2.142113
 H     6.495319     5.323970    -0.674965
 O     7.152776     4.667904    -0.928551
 H     7.331347     4.146317    -0.119840
 H    -5.506488    -2.839729     5.794971
 O    -5.546019    -2.068626     6.402818
 H    -4.931067    -2.302790     7.119423
 H     2.367388     1.631274     7.545904
 O     2.848927     0.794152     7.482102
 H     2.553155     0.391731     6.638419
 H    -2.873192    -2.781248     7.065579
 O    -3.377683    -2.910280     7.897722
 H    -2.776714    -2.563590     8.573096
 H     5.543745     2.222879     6.803404
 O     5.275787     1.340715     6.539826
 H     4.383762     1.182854     6.914291
 H     1.900190    -4.259527     4.266890
 O     2.363051    -4.178178     5.113289
 H     3.072722    -4.841920     5.055646
 H     10.674733    -2.553250    -1.295755
 O     11.096511    -2.540298    -0.389135
 H     12.042426    -2.646456    -0.523829
 H     3.775900     8.304719    -2.870172
 O     3.080251     8.875103    -2.520228
 H     2.890539     8.534273    -1.626985
 H    -8.122898    -6.569489     0.328190
 O    -8.762078    -6.165264    -0.280784
 H    -8.727913    -5.211369    -0.023713
 H    -0.847415     9.625457    -3.370944
 O    -1.792444     9.781020    -3.182589
 H    -1.881692     9.912011    -2.236102
 H     4.095826     4.029414    -3.682770
 O     3.533412     4.808543    -3.731143
 H     4.079857     5.593576    -3.519779
 H     5.070509     6.646801    -1.894908
 O     5.018996     6.843826    -2.850400
 H     5.814087     6.489567    -3.269350
 H    -0.650908     5.276707     6.049031
 O     0.085476     4.803062     5.637035
 H     0.774178     5.451729     5.354140
 H     2.948600     5.696307     5.185579
 O     2.188322     6.120461     4.760615
 H     2.161408     5.776095     3.853773
 H    -7.355084     8.881533    -0.415570
 O    -7.041638     8.649204    -1.299532
 H    -6.796195     7.708391    -1.252188
 H    -1.363258    -4.987971     3.668315
 O    -0.897831    -4.904171     2.804946
 H     0.022440    -5.152576     2.925999
 H     4.072225    -1.979690     6.410433
 O     4.096654    -2.148096     5.444036
 H     3.395919    -2.807892     5.264929
 H     7.077072    -6.001458     3.468210
 O     7.429419    -5.620320     4.282254
 H     6.940118    -4.785886     4.410647
 H     8.958704    -4.628514     4.237608
 O     9.584723    -3.891863     4.105328
 H     9.293939    -3.184721     4.694332
 H     3.071777     7.874198    -8.049073
 O     3.066323     7.349474    -7.249879
 H     2.182172     7.492860    -6.832874
 H    -0.807630    -1.194100     8.161019
 O    -1.021482    -1.822477     8.864935
 H    -0.301679    -2.459722     8.864386
 H     8.299304     4.585216    -2.097471
 O     8.993535     4.609067    -2.805147
 H     9.700939     5.140602    -2.440007
 H     6.379822     4.718452    -5.044908
 O     6.679751     5.136293    -4.215797
 H     7.625638     4.986973    -4.104934
 H     10.656946     2.264024    -3.930686
 O     9.906779     2.144837    -3.350246
 H     9.511015     3.032164    -3.202326
 H     2.954956    -2.249564     8.042055
 O     3.779890    -1.726229     8.055690
 H     3.487573    -0.803713     8.112758
 H    -2.242044    -2.126517    -8.751785
 O    -2.674033    -1.790180    -7.967620
 H    -1.987708    -1.317126    -7.448733
 H     4.937253     5.502246     1.619798
 O     4.722605     4.955820     2.386526
 H     3.750989     4.968420     2.463508
 H    -3.597872    -6.424780    -4.758225
 O    -2.796179    -5.901753    -4.829177
 H    -3.025178    -5.136579    -5.380320
 H    -6.814995     6.151124     4.740618
 O    -6.385167     6.977756     4.453272
 H    -6.230083     6.881848     3.487341
 H    -7.705042     4.125165     5.969924
 O    -7.433351     4.546656     5.144932
 H    -7.163773     3.814554     4.566895
 H    -7.504166     9.430932     2.207078
 O    -7.248264     9.812915     1.342605
 H    -7.727687     10.638899     1.269519
 H    -5.942478    -6.999243     1.735824
 O    -6.556528    -6.384790     1.304464
 H    -6.011056    -5.944976     0.617566
 H    -3.916709    -4.635167     7.673497
 O    -4.128916    -5.489484     7.256363
 H    -3.323956    -5.756805     6.797728
 H     9.497232     0.974649    -0.318142
 O     9.539892     1.926671    -0.520268
 H     9.858202     1.979343    -1.427984
 H    -8.014070    -4.264292     3.211677
 O    -7.084708    -4.514161     3.238670
 H    -6.931592    -5.164039     2.523068
 H     0.894830    -2.168094     7.013798
 O     1.397797    -2.895032     7.396824
 H     1.635153    -3.475215     6.656517
 H    -3.294856    -3.030937    -6.798886
 O    -3.712247    -3.655226    -6.187138
 H    -4.660666    -3.538737    -6.290851
 H    -8.951901     8.312499     3.602736
 O    -8.171798     8.858053     3.713482
 H    -7.493549     8.279393     4.121476
 H     7.937021    -2.058476    -5.433708
 O     7.075983    -1.654287    -5.134445
 H     6.698731    -2.307691    -4.518861
 H    -4.988505    -4.887130     5.812980
 O    -5.025931    -4.316725     5.020409
 H    -5.773784    -4.585644     4.467633
 N     9.536983    -2.827371    -5.660601
 H     10.223343    -2.354449    -6.239681
 H     9.512406    -3.798382    -5.956155
 H     9.864255    -2.802947    -4.691017
